Material: main / Eu / Fernandez-Perea
Optical constants. M. Fernández-Perea, M. Vidal-Dasilva1, J. A. Aznárez, J. I. Larruquert, J. A. Méndez, L. Poletto, D. Garoli, A. M. Malvezzi, A. Giglia and S. Nannarone. Transmittance and optical constants of Eu films from 8.3 to 1400 eV, J. Appl. Phys. 104, 123527 (2008) (Numerical data kindly provided by Juan Larruquert)
Comments: Density: 5.25 g/cm3. Film deposited at room temperature.
Specs: {"n_absolute": true, "wavelength_vacuum": true}
wavelength (um)	n	k
0.000882651	0.99974513	0.000204985
0.000898614	0.99974031	0.000213494
0.000915168	0.99973487	0.000223633
0.000932362	0.99973207	0.000233364
0.000950204	0.99972864	0.000244427
0.000968742	0.99972695	0.000258653
0.000988004	0.99972925	0.000273234
0.001008075	0.9997364	0.000288174
0.001028966	0.99974897	0.000304191
0.001036701	0.99975094	0.000297164
0.001038847	0.999749	0.000300134
0.001040983	0.9997452	0.000303981
0.001043124	0.99974551	0.000308625
0.001045308	0.99974837	0.000314107
0.001047497	0.99975246	0.000319414
0.001049695	0.99975342	0.00031858
0.001051873	0.99975799	0.00031838
0.001054048	0.99975835	0.000312946
0.001056308	0.99974872	0.000306277
0.00105853	0.99973235	0.00030144
0.001060743	0.99970976	0.000306058
0.001062965	0.9996708	0.000320969
0.001065272	0.99960836	0.000370226
0.001067538	0.99952659	0.000499241
0.001069784	0.99968136	0.000928352
0.001072043	1.000389	0.000648851
0.00107441	1.0001413	0.000216817
0.001076664	0.9999933	0.000198713
0.001078954	0.99992643	0.000199846
0.001081337	0.99988127	0.000196667
0.001083626	0.99983722	0.000195536
0.001085949	0.99978591	0.000200738
0.001088352	0.99971043	0.00022127
0.001090683	0.99962683	0.000309779
0.00109311	0.99963622	0.000510172
0.001095466	0.99949979	0.000627355
0.001097797	1.000435	0.001148104
0.001100278	1.0005107	0.000248988
0.001102638	1.0002361	0.0001106
0.001105136	1.0001177	8.53285E-05
0.00110754	1.0000524	7.83143E-05
0.001110019	1.0000066	7.65961E-05
0.001112447	0.99997363	7.50541E-05
0.00111495	0.99994771	7.45829E-05
0.001117405	0.9999252	7.40116E-05
0.001119938	0.9999074	7.47482E-05
0.001122403	0.99989218	7.44625E-05
0.001124964	0.99987929	7.39556E-05
0.001127452	0.99986669	7.24305E-05
0.001130037	0.99985413	7.33061E-05
0.001132546	0.99984282	7.42039E-05
0.001135106	0.99983314	7.55306E-05
0.001137696	0.99982502	7.62087E-05
0.001140247	0.99981568	7.82597E-05
0.001142894	0.99980851	7.77954E-05
0.001145445	0.99980116	7.88454E-05
0.001148081	0.99979544	7.82438E-05
0.001150766	0.99979022	7.9718E-05
0.001153356	0.99978316	7.87396E-05
0.00115606	0.99977604	7.73222E-05
0.001158745	0.99976902	7.84159E-05
0.001161362	0.99976167	7.94824E-05
0.001164094	0.99975515	8.00962E-05
0.001166842	0.99975043	8.12875E-05
0.001169612	0.99974505	8.24592E-05
0.001172278	0.99973964	8.34396E-05
0.001175005	0.99973503	8.54427E-05
0.001177799	0.99973006	8.39109E-05
0.001180613	0.99972508	8.58517E-05
0.001183427	0.99972001	8.64551E-05
0.001186197	0.9997157	8.6414E-05
0.001188963	0.99971161	8.75406E-05
0.001191829	0.99970556	8.85122E-05
0.001194637	0.99970212	8.92813E-05
0.001197567	0.99969772	8.97316E-05
0.001200441	0.99969333	0.000090412
0.001203341	0.99968871	9.11965E-05
0.001206236	0.9996847	9.29134E-05
0.001209158	0.99968059	9.34185E-05
0.001212097	0.9996767	9.4267E-05
0.001215005	0.99967248	9.45042E-05
0.001217889	0.99966818	9.55678E-05
0.00122089	0.99966416	9.50989E-05
0.001223851	0.99965984	9.65668E-05
0.001226865	0.99965627	9.6834E-05
0.00122987	0.99965232	9.79802E-05
0.001232984	0.999648	9.87835E-05
0.00123606	0.9996445	9.98962E-05
0.001239126	0.99963975	0.000100568
0.001242211	0.99963643	0.000101773
0.001245292	0.99963299	0.000102607
0.001248364	0.9996295	0.000102866
0.001251487	0.9996251	0.000104834
0.001254611	0.99962129	0.000105465
0.00125771	0.99961769	0.000106565
0.001261034	0.99961439	0.000107502
0.001264163	0.99961038	0.000108286
0.001267339	0.999607	0.00010879
0.001270496	0.99960351	0.000108545
0.001273743	0.9995985	0.000110875
0.001277033	0.99959549	0.000111637
0.001280338	0.99959214	0.000112399
0.001283577	0.99958786	0.000113048
0.001286925	0.99958346	0.000114306
0.001290297	0.99958019	0.00011495
0.001299649	0.99956887	0.000117367
0.001313374	0.99955362	0.000121763
0.001327442	0.99953761	0.000127189
0.001341792	0.99952385	0.000131882
0.001356668	0.99950809	0.000137284
0.001371675	0.99949335	0.000141238
0.001386974	0.99947679	0.000146511
0.001402662	0.9994614	0.000152034
0.001418673	0.9994451	0.000157325
0.001435072	0.99942784	0.000163206
0.001451874	0.99941239	0.000169802
0.001469415	0.99939457	0.000175384
0.001487006	0.99937709	0.000180654
0.00150503	0.99935752	0.000187301
0.001523478	0.99933817	0.000193673
0.001542431	0.99931941	0.000203298
0.001561799	0.99930089	0.000211142
0.001581711	0.99928009	0.000219824
0.001602102	0.99925955	0.000229024
0.001623049	0.99923858	0.000238199
0.001644538	0.99921779	0.000247665
0.001666567	0.99919633	0.000257003
0.001689258	0.99917247	0.000267991
0.001712644	0.99914973	0.000278985
0.001736569	0.99912632	0.000289277
0.001761202	0.99910125	0.00030136
0.001786954	0.99907701	0.000315822
0.001813057	0.99905012	0.000325566
0.001839849	0.99902457	0.000338361
0.001867593	0.99899454	0.0003489
0.001896081	0.99896622	0.000365141
0.001925463	0.99893561	0.000373407
0.001955873	0.99889952	0.000392996
0.001987199	0.99887142	0.000408153
0.00201953	0.9988186	0.000422868
0.002052885	0.99879299	0.00045491
0.002087408	0.99876116	0.000468546
0.002123157	0.99871901	0.000490804
0.002160108	0.9986807	0.000505319
0.002181622	0.99865265	0.000517459
0.002191207	0.99864216	0.000526747
0.002200883	0.998633	0.000528748
0.00221067	0.99862145	0.000535124
0.002220514	0.9986074	0.000541483
0.002230456	0.99859515	0.000548549
0.002240513	0.99858094	0.000559949
0.00225064	0.99857384	0.000569047
0.002260841	0.99856771	0.000572822
0.002271153	0.9985527	0.000576555
0.002281594	0.99854123	0.000584864
0.002292053	0.99852686	0.000596694
0.00230267	0.99851817	0.00060704
0.002313378	0.99851402	0.000615418
0.002324159	0.99848958	0.00062321
0.002335097	0.99852404	0.000613449
0.002346102	0.99848748	0.000614152
0.002357205	0.99847161	0.000615927
0.00236842	0.99845551	0.00062683
0.002379746	0.99844728	0.000639439
0.002412147	0.99839565	0.000643434
0.002459928	0.99833321	0.000675895
0.002495655	0.99827896	0.000711706
0.002520667	0.99825127	0.000722878
0.002546506	0.99822708	0.000745585
0.002573233	0.99819397	0.000763907
0.002599829	0.99816018	0.000786211
0.002627274	0.99812993	0.000807025
0.002655335	0.99809251	0.000832726
0.002684054	0.99805965	0.000829865
0.002713359	0.99802766	0.000853237
0.002743304	0.99798861	0.000881165
0.002774005	0.99795048	0.000905898
0.002805352	0.99791283	0.000924655
0.002837469	0.99786921	0.000945646
0.002870284	0.99782755	0.000970878
0.002903757	0.99777885	0.000996705
0.002938203	0.99772844	0.001026608
0.002973355	0.99768681	0.001061535
0.003009482	0.9976505	0.001098657
0.003046357	0.99766683	0.001137314
0.003084163	0.99750456	0.00113783
0.003124375	0.99748977	0.001088034
0.003164172	0.99742182	0.001188227
0.003204965	0.99737335	0.001231554
0.003246866	0.99731201	0.001265907
0.003289854	0.9972558	0.00129976
0.003333965	0.99719853	0.00133835
0.003379353	0.99713797	0.001359781
0.00342593	0.9970773	0.001402371
0.003473753	0.99700108	0.001426548
0.003522969	0.99692451	0.001459446
0.003573759	0.99684212	0.001494554
0.00362591	0.99673837	0.001537246
0.003679623	0.99665365	0.00158966
0.003734938	0.99655398	0.001636454
0.003792095	0.9964573	0.001693163
0.003850823	0.9963503	0.001745142
0.003895478	0.99627356	0.001823664
0.003926038	0.99621214	0.001817579
0.003957296	0.99615929	0.001869205
0.003989062	0.99611338	0.001898616
0.004021576	0.99604808	0.001928746
0.004054246	0.99598318	0.001971004
0.004087635	0.99591769	0.002002864
0.004121356	0.99585576	0.00205291
0.004155869	0.99582332	0.002099274
0.004190913	0.9957619	0.002128812
0.004226394	0.99574335	0.002139563
0.004262463	0.99563624	0.002229509
0.004299337	0.99559208	0.002263332
0.004336848	0.99554678	0.002197334
0.004375008	0.99539461	0.002298555
0.004413906	0.99531542	0.002330048
0.004453428	0.99524851	0.002360949
0.004493682	0.99516565	0.002425031
0.004534645	0.99508692	0.002454097
0.004576391	0.99497402	0.002506666
0.004618942	0.99488362	0.002549469
0.004662285	0.99477307	0.002629239
0.004706497	0.99466942	0.002702488
0.004751546	0.99460617	0.002792071
0.004797368	0.99454621	0.002831309
0.00484416	0.99444782	0.002845994
0.00489181	0.99432285	0.002873512
0.004940444	0.99416705	0.002915183
0.004990223	0.9940141	0.002979381
0.005040772	0.99386275	0.003059024
0.005092477	0.99370641	0.003148962
0.005145309	0.99354777	0.003259834
0.005199159	0.99339629	0.003356489
0.005254184	0.99324071	0.003472845
0.005310386	0.99307892	0.003586675
0.005367794	0.99291408	0.003702031
0.005426576	0.99274226	0.003823106
0.00548647	0.99256241	0.003976644
0.00554789	0.99238036	0.004123356
0.005610652	0.9921935	0.004278617
0.005674736	0.9920119	0.004456943
0.005740383	0.99181205	0.00463943
0.005807442	0.99161076	0.004827537
0.005876345	0.99139828	0.005039586
0.005946826	0.99118935	0.005272871
0.006018735	0.99098283	0.00550292
0.00609296	0.99075788	0.005758052
0.006168447	0.99048413	0.006018623
0.006246093	0.99031733	0.006451582
0.006325669	0.99013565	0.0067308
0.006407445	0.98992936	0.007048115
0.006491207	0.9896814	0.007369608
0.006577212	0.98949822	0.0079587
0.006665559	0.98939729	0.008372268
0.006756484	0.98926678	0.008769964
0.006849864	0.98914653	0.009141849
0.006947862	0.9889794	0.009596028
0.007046618	0.98884067	0.01003547
0.007147855	0.98865585	0.01050138
0.007252217	0.98843706	0.01102278
0.007359584	0.9882319	0.01161502
0.007470907	0.98799475	0.01226482
0.007584476	0.98779382	0.01302858
0.007702144	0.9876131	0.01388377
0.0078236	0.98745574	0.01479086
0.007948866	0.98718537	0.01573995
0.008078351	0.98672034	0.0170021
0.008212081	0.98603616	0.01895792
0.008350245	0.98551741	0.02206106
0.008493144	0.98529082	0.02665844
0.008641073	0.99088139	0.03608554
0.008794128	1.0064163	0.03936541
0.0089528	1.0215534	0.02340277
0.009117376	1.0118837	0.01814325
0.009288033	1.010588	0.006975059
0.009465193	1.0053889	0.004521436
0.009649499	1.0012139	0.0043768
0.009840624	0.99838225	0.00497773
0.01004023	0.99642602	0.005588993
0.010247423	0.99489062	0.006165572
0.010463401	0.99360858	0.006744076
0.0106889	0.99245969	0.007288893
0.010924266	0.99142615	0.007845711
0.01117022	0.99044868	0.008387508
0.01142763	0.98951211	0.008942095
0.011697052	0.98858544	0.00953161
0.011979461	0.9877165	0.01015634
0.012275905	0.98684598	0.01070721
0.012588311	0.98594934	0.01141283
0.012915854	0.98506386	0.01203843
0.013261342	0.98410714	0.01266696
0.013625966	0.98309271	0.01333831
0.014010209	0.98203615	0.01406873
0.014417312	0.9808906	0.01480862
0.014848945	0.97964714	0.01558384
0.015307056	0.97826173	0.01645322
0.015794613	0.97675466	0.01738398
0.016314256	0.97508638	0.01843221
0.016868999	0.97327969	0.01960108
0.017463363	0.97129648	0.02088255
0.018100611	0.9691066	0.02231249
0.018786029	0.96671822	0.02390544
0.019525748	0.96393041	0.02548236
0.020325883	0.96061705	0.02733213
0.021194385	0.95669776	0.02953413
0.022140492	0.95203691	0.03216368
0.023175104	0.94644168	0.03533229
0.024311078	0.93915628	0.03986112
0.025174976	0.93388435	0.043243665
0.025830604	0.92881601	0.046650578
0.026521232	0.92348468	0.051020323
0.027249559	0.91797334	0.05635125
0.02802002	0.91231322	0.062653201
0.028835457	0.90638823	0.069921347
0.029699486	0.90064205	0.07986429
0.030613342	0.89511658	0.08985944
0.031290956	0.89214964	0.0974388
0.031792024	0.88876821	0.1031576
0.032309635	0.88575553	0.1091733
0.032844442	0.88214402	0.1163296
0.033397386	0.87879992	0.1240675
0.033969378	0.87536906	0.1325404
0.03456142	0.8729605	0.1428265
0.035173797	0.86982792	0.1544636
0.035808783	0.86665756	0.167839
0.03646627	0.8653757	0.1825992
0.037149867	0.86593887	0.1979702
0.037858183	0.86868923	0.2166888
0.038594744	0.87277258	0.2357132
0.039360884	0.88147229	0.2566021
0.040157121	0.89524644	0.2807025
0.040987592	0.91327982	0.2989845
0.041852078	0.93795769	0.3148932
0.042754687	0.96298077	0.326041
0.043693713	0.98964645	0.3355954
0.04467802	1.0214185	0.3293852
0.045707125	1.0444937	0.3280435
0.046785162	1.0622054	0.3205237
0.047914631	1.095893	0.3186189
0.049100315	1.1295787	0.3060338
0.050346803	1.149243	0.2684011
0.05166307	1.1424788	0.2396203
0.053043656	1.1382118	0.2337519
0.05450173	1.1549114	0.2256528
0.056040052	1.1627709	0.2001253
0.083399992	0.99246283	0.0506799
0.106799994	0.7910371	0.1418747
0.131999993	0.65220651	0.3498872
