Material: main / Si3N4 / Kischkat
Optical constants. J. Kischkat, S. Peters, B. Gruska, M. Semtsiv, M. Chashnikova, M. Klinkm√ºller, O. Fedosenko, S. Machulik, A. Aleksandrova, G. Monastyrskyi, Y. Flores, and W. T. Masselink. Mid-infrared optical properties of thin films of aluminum oxide, titanium dioxide, silicon dioxide, aluminum nitride, and silicon nitride, Appl. Opt. 51, 6789-6798 (2012) (Numerical data kindly provided by Jan Kischkat)
Comments: 437-nm single layer on Si substrate. Prepared by room temperature reactive sputter deposition using Si target and 2.0 SCCM N2 flux at 300 W plasma power.Data on the influence of deposition conditions on the optical properties of the film can be found in the original publication.Data on the refractive index (n) in the visible can be found in the original publication.
wavelength (um)	n	k
1.53846	2.46306	0.00003
1.54226	2.46301	0.00003
1.54607	2.46296	0.00003
1.54991	2.46291	0.00003
1.55376	2.46286	0.00003
1.55763	2.46280	0.00003
1.56152	2.46275	0.00003
1.56544	2.46270	0.00003
1.56937	2.46264	0.00003
1.57332	2.46259	0.00003
1.57729	2.46253	0.00003
1.58128	2.46248	0.00003
1.58529	2.46242	0.00003
1.58932	2.46237	0.00003
1.59337	2.46231	0.00003
1.59744	2.46225	0.00003
1.60154	2.46220	0.00003
1.60565	2.46214	0.00003
1.60979	2.46208	0.00004
1.61394	2.46202	0.00004
1.61812	2.46196	0.00004
1.62232	2.46190	0.00004
1.62655	2.46184	0.00004
1.63079	2.46178	0.00004
1.63506	2.46172	0.00004
1.63934	2.46166	0.00004
1.64366	2.46160	0.00004
1.64799	2.46153	0.00004
1.65235	2.46147	0.00004
1.65673	2.46141	0.00004
1.66113	2.46134	0.00004
1.66556	2.46128	0.00004
1.67001	2.46121	0.00004
1.67448	2.46115	0.00004
1.67898	2.46108	0.00004
1.68350	2.46101	0.00004
1.68805	2.46095	0.00004
1.69262	2.46088	0.00004
1.69722	2.46081	0.00004
1.70184	2.46074	0.00004
1.70648	2.46067	0.00004
1.71116	2.46060	0.00004
1.71585	2.46053	0.00004
1.72058	2.46046	0.00004
1.72533	2.46038	0.00004
1.73010	2.46031	0.00004
1.73491	2.46024	0.00004
1.73974	2.46016	0.00005
1.74459	2.46009	0.00005
1.74948	2.46001	0.00005
1.75439	2.45994	0.00005
1.75932	2.45986	0.00005
1.76429	2.45978	0.00005
1.76929	2.45970	0.00005
1.77431	2.45963	0.00005
1.77936	2.45955	0.00005
1.78444	2.45947	0.00005
1.78955	2.45938	0.00005
1.79469	2.45930	0.00005
1.79986	2.45922	0.00005
1.80505	2.45914	0.00005
1.81028	2.45905	0.00005
1.81554	2.45897	0.00005
1.82083	2.45888	0.00005
1.82615	2.45880	0.00005
1.83150	2.45871	0.00005
1.83688	2.45862	0.00005
1.84230	2.45853	0.00005
1.84775	2.45844	0.00006
1.85322	2.45835	0.00006
1.85874	2.45826	0.00006
1.86428	2.45817	0.00006
1.86986	2.45808	0.00006
1.87547	2.45798	0.00006
1.88111	2.45789	0.00006
1.88679	2.45779	0.00006
1.89251	2.45770	0.00006
1.89825	2.45760	0.00006
1.90404	2.45750	0.00006
1.90985	2.45740	0.00006
1.91571	2.45730	0.00006
1.92160	2.45720	0.00006
1.92753	2.45710	0.00006
1.93349	2.45699	0.00006
1.93949	2.45689	0.00006
1.94553	2.45678	0.00007
1.95160	2.45668	0.00007
1.95771	2.45657	0.00007
1.96386	2.45646	0.00007
1.97006	2.45635	0.00007
1.97628	2.45624	0.00007
1.98255	2.45613	0.00007
1.98886	2.45602	0.00007
1.99521	2.45590	0.00007
2.00160	2.45579	0.00007
2.00803	2.45567	0.00007
2.01450	2.45555	0.00007
2.02102	2.45543	0.00007
2.02758	2.45531	0.00008
2.03417	2.45519	0.00008
2.04082	2.45507	0.00008
2.04750	2.45495	0.00008
2.05423	2.45482	0.00008
2.06101	2.45469	0.00008
2.06782	2.45457	0.00008
2.07469	2.45444	0.00008
2.08160	2.45431	0.00008
2.08855	2.45417	0.00008
2.09556	2.45404	0.00008
2.10261	2.45391	0.00009
2.10970	2.45377	0.00009
2.11685	2.45363	0.00009
2.12404	2.45349	0.00009
2.13129	2.45335	0.00009
2.13858	2.45321	0.00009
2.14592	2.45307	0.00009
2.15332	2.45292	0.00009
2.16076	2.45277	0.00009
2.16826	2.45263	0.00010
2.17581	2.45248	0.00010
2.18341	2.45232	0.00010
2.19106	2.45217	0.00010
2.19877	2.45201	0.00010
2.20653	2.45186	0.00010
2.21435	2.45170	0.00010
2.22222	2.45154	0.00010
2.23015	2.45138	0.00011
2.23814	2.45121	0.00011
2.24618	2.45104	0.00011
2.25428	2.45088	0.00011
2.26244	2.45071	0.00011
2.27066	2.45053	0.00011
2.27894	2.45036	0.00011
2.28728	2.45018	0.00012
2.29568	2.45000	0.00012
2.30415	2.44982	0.00012
2.31267	2.44964	0.00012
2.32126	2.44946	0.00012
2.32992	2.44927	0.00012
2.33863	2.44908	0.00012
2.34742	2.44889	0.00013
2.35627	2.44869	0.00013
2.36518	2.44850	0.00013
2.37417	2.44830	0.00013
2.38322	2.44810	0.00013
2.39234	2.44789	0.00014
2.40154	2.44769	0.00014
2.41080	2.44748	0.00014
2.42014	2.44727	0.00014
2.42954	2.44705	0.00014
2.43902	2.44683	0.00015
2.44858	2.44661	0.00015
2.45821	2.44639	0.00015
2.46792	2.44617	0.00015
2.47770	2.44594	0.00015
2.48756	2.44571	0.00016
2.49750	2.44547	0.00016
2.50752	2.44523	0.00016
2.51762	2.44499	0.00016
2.52781	2.44475	0.00017
2.53807	2.44450	0.00017
2.54842	2.44425	0.00017
2.55885	2.44400	0.00017
2.56937	2.44374	0.00018
2.57998	2.44348	0.00018
2.59067	2.44322	0.00018
2.60146	2.44295	0.00019
2.61233	2.44268	0.00019
2.62329	2.44240	0.00019
2.63435	2.44212	0.00019
2.64550	2.44184	0.00020
2.65675	2.44155	0.00020
2.66809	2.44126	0.00020
2.67953	2.44096	0.00021
2.69107	2.44066	0.00021
2.70270	2.44036	0.00021
2.71444	2.44005	0.00022
2.72628	2.43974	0.00022
2.73823	2.43942	0.00022
2.75028	2.43910	0.00023
2.76243	2.43877	0.00023
2.77469	2.43844	0.00024
2.78707	2.43810	0.00024
2.79955	2.43776	0.00024
2.81215	2.43742	0.00025
2.82486	2.43706	0.00025
2.83768	2.43671	0.00026
2.85063	2.43634	0.00026
2.86369	2.43597	0.00027
2.87687	2.43560	0.00027
2.89017	2.43522	0.00028
2.90360	2.43483	0.00028
2.91715	2.43444	0.00029
2.93083	2.43404	0.00029
2.94464	2.43364	0.00030
2.95858	2.43322	0.00030
2.97265	2.43281	0.00031
2.98686	2.43238	0.00031
3.00120	2.43195	0.00032
3.01568	2.43151	0.00033
3.03030	2.43106	0.00033
3.04507	2.43061	0.00034
3.05998	2.43015	0.00034
3.07503	2.42968	0.00035
3.09023	2.42920	0.00036
3.10559	2.42871	0.00036
3.12110	2.42822	0.00037
3.13676	2.42772	0.00038
3.15259	2.42721	0.00039
3.16857	2.42668	0.00039
3.18471	2.42615	0.00040
3.20102	2.42562	0.00041
3.21750	2.42507	0.00042
3.23415	2.42451	0.00043
3.25098	2.42394	0.00044
3.26797	2.42336	0.00045
3.28515	2.42277	0.00046
3.30251	2.42217	0.00047
3.32005	2.42155	0.00048
3.33778	2.42093	0.00049
3.35570	2.42029	0.00050
3.37382	2.41964	0.00051
3.39213	2.41898	0.00052
3.41064	2.41831	0.00053
3.42936	2.41762	0.00054
3.44828	2.41692	0.00055
3.46741	2.41620	0.00057
3.48675	2.41547	0.00058
3.50631	2.41473	0.00059
3.52609	2.41397	0.00061
3.54610	2.41319	0.00062
3.56633	2.41240	0.00064
3.58680	2.41159	0.00065
3.60750	2.41076	0.00067
3.62845	2.40992	0.00069
3.64964	2.40906	0.00071
3.67107	2.40818	0.00072
3.69276	2.40728	0.00074
3.71471	2.40636	0.00076
3.73692	2.40542	0.00078
3.75940	2.40445	0.00080
3.78215	2.40347	0.00083
3.80518	2.40246	0.00085
3.82848	2.40143	0.00087
3.85208	2.40038	0.00090
3.87597	2.39930	0.00092
3.90016	2.39819	0.00095
3.92465	2.39706	0.00098
3.94945	2.39590	0.00101
3.97456	2.39471	0.00104
4.00000	2.39349	0.00107
4.02576	2.39224	0.00111
4.05186	2.39096	0.00115
4.07830	2.38964	0.00118
4.10509	2.38829	0.00122
4.13223	2.38691	0.00127
4.15973	2.38548	0.00131
4.18760	2.38402	0.00136
4.21585	2.38252	0.00141
4.24448	2.38098	0.00146
4.27350	2.37939	0.00152
4.30293	2.37776	0.00158
4.33276	2.37608	0.00164
4.36300	2.37435	0.00171
4.39367	2.37256	0.00178
4.42478	2.37073	0.00185
4.45633	2.36884	0.00194
4.48833	2.36689	0.00202
4.52080	2.36488	0.00212
4.55373	2.36280	0.00222
4.58716	2.36066	0.00233
4.62107	2.35844	0.00244
4.65549	2.35615	0.00257
4.69043	2.35379	0.00271
4.72590	2.35134	0.00286
4.76190	2.34880	0.00302
4.79846	2.34618	0.00320
4.83559	2.34346	0.00339
4.87329	2.34064	0.00360
4.91159	2.33771	0.00383
4.95050	2.33467	0.00409
4.99002	2.33151	0.00437
5.03018	2.32822	0.00469
5.07099	2.32481	0.00503
5.11247	2.32125	0.00542
5.15464	2.31755	0.00585
5.19751	2.31368	0.00633
5.24109	2.30966	0.00687
5.28541	2.30546	0.00748
5.33049	2.30107	0.00816
5.37634	2.29650	0.00893
5.42299	2.29171	0.00980
5.47046	2.28672	0.01079
5.51876	2.28151	0.01192
5.56793	2.27606	0.01320
5.61798	2.27038	0.01465
5.66893	2.26447	0.01631
5.72082	2.25831	0.01819
5.77367	2.25191	0.02032
5.82751	2.24529	0.02275
5.88235	2.23845	0.02549
5.93824	2.23141	0.02857
5.99520	2.22419	0.03202
6.05327	2.21683	0.03585
6.11247	2.20936	0.04009
6.17284	2.20180	0.04473
6.23441	2.19420	0.04976
6.29723	2.18658	0.05517
6.36132	2.17895	0.06093
6.42674	2.17131	0.06703
6.49351	2.16366	0.07344
6.56168	2.15597	0.08015
6.63130	2.14823	0.08716
6.70241	2.14040	0.09449
6.77507	2.13249	0.10216
6.84932	2.12449	0.11020
6.92521	2.11644	0.11863
7.00280	2.10836	0.12746
7.08215	2.10030	0.13665
7.16332	2.09229	0.14613
7.24638	2.08432	0.15580
7.33138	2.07632	0.16556
7.41840	2.06816	0.17529
7.50751	2.05967	0.18491
7.59878	2.05058	0.19440
7.69231	2.04065	0.20381
7.78816	2.02961	0.21327
7.88644	2.01722	0.22294
7.98722	2.00326	0.23300
8.09061	1.98748	0.24365
8.19672	1.96958	0.25505
8.30565	1.94912	0.26744
8.41751	1.92547	0.28120
8.53242	1.89780	0.29702
8.65052	1.86525	0.31608
8.77193	1.82705	0.34021
8.89680	1.78276	0.37193
9.02527	1.73270	0.41468
9.15751	1.67854	0.47280
9.29368	1.62453	0.55105
9.43396	1.57849	0.65290
9.57854	1.55130	0.77717
9.72763	1.55267	0.91556
9.88142	1.58525	1.05515
10.04016	1.64343	1.18546
10.20408	1.71850	1.30357
10.37344	1.80566	1.41293
10.54852	1.90730	1.51704
10.72961	2.02960	1.61279
10.91703	2.17407	1.68934
11.11111	2.33144	1.73617
11.31222	2.48665	1.75369
11.52074	2.63198	1.75350
11.73709	2.77423	1.74574
11.96172	2.92505	1.72348
12.19512	3.07481	1.66930
12.43781	3.20077	1.59239
12.69036	3.30807	1.51353
12.95337	3.41104	1.43060
13.22751	3.50845	1.33254
13.51351	3.58862	1.21746
13.81215	3.64331	1.09516
14.12429	3.67509	0.97760
