Material: main / AlN / Kischkat
Optical constants. J. Kischkat, S. Peters, B. Gruska, M. Semtsiv, M. Chashnikova, M. Klinkm√ºller, O. Fedosenko, S. Machulik, A. Aleksandrova, G. Monastyrskyi, Y. Flores, and W. T. Masselink. Mid-infrared optical properties of thin films of aluminum oxide, titanium dioxide, silicon dioxide, aluminum nitride, and silicon nitride, Appl. Opt. 51, 6789-6798 (2012) (Numerical data kindly provided by Jan Kischkat)
Comments: 297-nm single layer on Si substrate. Prepared by room temperature reactive sputter deposition using Al target and 2.0 SCCM N2 flux at 300 W plasma power.Data on the influence of deposition conditions on the optical properties of the film can be found in the original publication.Data on the refractive index (n) in the visible can be found in the original publication.
wavelength (um)	n	k
1.53846	2.02942	0.00002
1.54226	2.02938	0.00002
1.54607	2.02934	0.00002
1.54991	2.02930	0.00002
1.55376	2.02926	0.00002
1.55763	2.02922	0.00002
1.56152	2.02918	0.00003
1.56544	2.02914	0.00003
1.56937	2.02910	0.00003
1.57332	2.02906	0.00003
1.57729	2.02902	0.00003
1.58128	2.02898	0.00003
1.58529	2.02894	0.00003
1.58932	2.02889	0.00003
1.59337	2.02885	0.00003
1.59744	2.02881	0.00003
1.60154	2.02876	0.00003
1.60565	2.02872	0.00003
1.60979	2.02868	0.00003
1.61394	2.02863	0.00003
1.61812	2.02859	0.00003
1.62232	2.02854	0.00003
1.62655	2.02850	0.00003
1.63079	2.02845	0.00003
1.63506	2.02841	0.00003
1.63934	2.02836	0.00003
1.64366	2.02831	0.00003
1.64799	2.02826	0.00003
1.65235	2.02822	0.00003
1.65673	2.02817	0.00003
1.66113	2.02812	0.00003
1.66556	2.02807	0.00003
1.67001	2.02802	0.00003
1.67448	2.02797	0.00003
1.67898	2.02792	0.00003
1.68350	2.02787	0.00003
1.68805	2.02782	0.00003
1.69262	2.02777	0.00003
1.69722	2.02772	0.00003
1.70184	2.02766	0.00003
1.70648	2.02761	0.00003
1.71116	2.02756	0.00003
1.71585	2.02750	0.00003
1.72058	2.02745	0.00003
1.72533	2.02740	0.00003
1.73010	2.02734	0.00003
1.73491	2.02729	0.00003
1.73974	2.02723	0.00003
1.74459	2.02717	0.00004
1.74948	2.02712	0.00004
1.75439	2.02706	0.00004
1.75932	2.02700	0.00004
1.76429	2.02694	0.00004
1.76929	2.02688	0.00004
1.77431	2.02682	0.00004
1.77936	2.02677	0.00004
1.78444	2.02670	0.00004
1.78955	2.02664	0.00004
1.79469	2.02658	0.00004
1.79986	2.02652	0.00004
1.80505	2.02646	0.00004
1.81028	2.02639	0.00004
1.81554	2.02633	0.00004
1.82083	2.02627	0.00004
1.82615	2.02620	0.00004
1.83150	2.02614	0.00004
1.83688	2.02607	0.00004
1.84230	2.02600	0.00004
1.84775	2.02594	0.00004
1.85322	2.02587	0.00004
1.85874	2.02580	0.00004
1.86428	2.02573	0.00004
1.86986	2.02566	0.00004
1.87547	2.02559	0.00004
1.88111	2.02552	0.00004
1.88679	2.02545	0.00004
1.89251	2.02538	0.00005
1.89825	2.02530	0.00005
1.90404	2.02523	0.00005
1.90985	2.02515	0.00005
1.91571	2.02508	0.00005
1.92160	2.02500	0.00005
1.92753	2.02493	0.00005
1.93349	2.02485	0.00005
1.93949	2.02477	0.00005
1.94553	2.02469	0.00005
1.95160	2.02461	0.00005
1.95771	2.02453	0.00005
1.96386	2.02445	0.00005
1.97006	2.02437	0.00005
1.97628	2.02429	0.00005
1.98255	2.02420	0.00005
1.98886	2.02412	0.00005
1.99521	2.02403	0.00005
2.00160	2.02395	0.00005
2.00803	2.02386	0.00005
2.01450	2.02377	0.00005
2.02102	2.02368	0.00006
2.02758	2.02360	0.00006
2.03417	2.02351	0.00006
2.04082	2.02341	0.00006
2.04750	2.02332	0.00006
2.05423	2.02323	0.00006
2.06101	2.02313	0.00006
2.06782	2.02304	0.00006
2.07469	2.02294	0.00006
2.08160	2.02285	0.00006
2.08855	2.02275	0.00006
2.09556	2.02265	0.00006
2.10261	2.02255	0.00006
2.10970	2.02245	0.00006
2.11685	2.02235	0.00006
2.12404	2.02224	0.00006
2.13129	2.02214	0.00007
2.13858	2.02203	0.00007
2.14592	2.02193	0.00007
2.15332	2.02182	0.00007
2.16076	2.02171	0.00007
2.16826	2.02160	0.00007
2.17581	2.02149	0.00007
2.18341	2.02138	0.00007
2.19106	2.02126	0.00007
2.19877	2.02115	0.00007
2.20653	2.02103	0.00007
2.21435	2.02091	0.00007
2.22222	2.02079	0.00007
2.23015	2.02067	0.00008
2.23814	2.02055	0.00008
2.24618	2.02043	0.00008
2.25428	2.02031	0.00008
2.26244	2.02018	0.00008
2.27066	2.02005	0.00008
2.27894	2.01992	0.00008
2.28728	2.01979	0.00008
2.29568	2.01966	0.00008
2.30415	2.01953	0.00008
2.31267	2.01940	0.00008
2.32126	2.01926	0.00009
2.32992	2.01912	0.00009
2.33863	2.01898	0.00009
2.34742	2.01884	0.00009
2.35627	2.01870	0.00009
2.36518	2.01855	0.00009
2.37417	2.01841	0.00009
2.38322	2.01826	0.00009
2.39234	2.01811	0.00009
2.40154	2.01796	0.00009
2.41080	2.01781	0.00010
2.42014	2.01765	0.00010
2.42954	2.01750	0.00010
2.43902	2.01734	0.00010
2.44858	2.01718	0.00010
2.45821	2.01701	0.00010
2.46792	2.01685	0.00010
2.47770	2.01668	0.00010
2.48756	2.01651	0.00011
2.49750	2.01634	0.00011
2.50752	2.01617	0.00011
2.51762	2.01599	0.00011
2.52781	2.01582	0.00011
2.53807	2.01564	0.00011
2.54842	2.01545	0.00011
2.55885	2.01527	0.00012
2.56937	2.01508	0.00012
2.57998	2.01489	0.00012
2.59067	2.01470	0.00012
2.60146	2.01451	0.00012
2.61233	2.01431	0.00012
2.62329	2.01411	0.00012
2.63435	2.01391	0.00013
2.64550	2.01370	0.00013
2.65675	2.01350	0.00013
2.66809	2.01329	0.00013
2.67953	2.01307	0.00013
2.69107	2.01286	0.00014
2.70270	2.01264	0.00014
2.71444	2.01242	0.00014
2.72628	2.01219	0.00014
2.73823	2.01196	0.00014
2.75028	2.01173	0.00014
2.76243	2.01150	0.00015
2.77469	2.01126	0.00015
2.78707	2.01102	0.00015
2.79955	2.01077	0.00015
2.81215	2.01052	0.00016
2.82486	2.01027	0.00016
2.83768	2.01002	0.00016
2.85063	2.00976	0.00016
2.86369	2.00949	0.00016
2.87687	2.00923	0.00017
2.89017	2.00896	0.00017
2.90360	2.00868	0.00017
2.91715	2.00840	0.00017
2.93083	2.00812	0.00018
2.94464	2.00783	0.00018
2.95858	2.00754	0.00018
2.97265	2.00724	0.00019
2.98686	2.00694	0.00019
3.00120	2.00664	0.00019
3.01568	2.00633	0.00019
3.03030	2.00601	0.00020
3.04507	2.00569	0.00020
3.05998	2.00537	0.00020
3.07503	2.00504	0.00021
3.09023	2.00470	0.00021
3.10559	2.00436	0.00021
3.12110	2.00401	0.00022
3.13676	2.00366	0.00022
3.15259	2.00330	0.00022
3.16857	2.00294	0.00023
3.18471	2.00257	0.00023
3.20102	2.00220	0.00024
3.21750	2.00181	0.00024
3.23415	2.00142	0.00024
3.25098	2.00103	0.00025
3.26797	2.00063	0.00025
3.28515	2.00022	0.00026
3.30251	1.99980	0.00026
3.32005	1.99938	0.00027
3.33778	1.99895	0.00027
3.35570	1.99851	0.00027
3.37382	1.99807	0.00028
3.39213	1.99762	0.00028
3.41064	1.99715	0.00029
3.42936	1.99668	0.00030
3.44828	1.99621	0.00030
3.46741	1.99572	0.00031
3.48675	1.99522	0.00031
3.50631	1.99472	0.00032
3.52609	1.99420	0.00032
3.54610	1.99368	0.00033
3.56633	1.99315	0.00034
3.58680	1.99260	0.00034
3.60750	1.99205	0.00035
3.62845	1.99148	0.00036
3.64964	1.99091	0.00036
3.67107	1.99032	0.00037
3.69276	1.98972	0.00038
3.71471	1.98911	0.00038
3.73692	1.98849	0.00039
3.75940	1.98785	0.00040
3.78215	1.98720	0.00041
3.80518	1.98654	0.00042
3.82848	1.98587	0.00043
3.85208	1.98518	0.00043
3.87597	1.98447	0.00044
3.90016	1.98376	0.00045
3.92465	1.98302	0.00046
3.94945	1.98227	0.00047
3.97456	1.98151	0.00048
4.00000	1.98073	0.00049
4.02576	1.97993	0.00050
4.05186	1.97911	0.00051
4.07830	1.97828	0.00053
4.10509	1.97742	0.00054
4.13223	1.97655	0.00055
4.15973	1.97566	0.00056
4.18760	1.97474	0.00058
4.21585	1.97381	0.00059
4.24448	1.97285	0.00060
4.27350	1.97188	0.00062
4.30293	1.97087	0.00063
4.33276	1.96985	0.00065
4.36300	1.96880	0.00066
4.39367	1.96772	0.00068
4.42478	1.96662	0.00070
4.45633	1.96548	0.00072
4.48833	1.96433	0.00073
4.52080	1.96314	0.00075
4.55373	1.96192	0.00077
4.58716	1.96067	0.00079
4.62107	1.95938	0.00081
4.65549	1.95806	0.00084
4.69043	1.95671	0.00086
4.72590	1.95532	0.00088
4.76190	1.95389	0.00091
4.79846	1.95243	0.00093
4.83559	1.95092	0.00096
4.87329	1.94937	0.00099
4.91159	1.94777	0.00101
4.95050	1.94613	0.00104
4.99002	1.94444	0.00107
5.03018	1.94271	0.00111
5.07099	1.94091	0.00114
5.11247	1.93907	0.00118
5.15464	1.93717	0.00121
5.19751	1.93521	0.00125
5.24109	1.93319	0.00129
5.28541	1.93110	0.00133
5.33049	1.92895	0.00138
5.37634	1.92673	0.00142
5.42299	1.92443	0.00147
5.47046	1.92206	0.00152
5.51876	1.91961	0.00157
5.56793	1.91707	0.00163
5.61798	1.91445	0.00169
5.66893	1.91173	0.00175
5.72082	1.90891	0.00181
5.77367	1.90599	0.00188
5.82751	1.90297	0.00195
5.88235	1.89983	0.00203
5.93824	1.89656	0.00211
5.99520	1.89318	0.00219
6.05327	1.88966	0.00228
6.11247	1.88600	0.00238
6.17284	1.88218	0.00248
6.23441	1.87821	0.00258
6.29723	1.87408	0.00270
6.36132	1.86976	0.00282
6.42674	1.86526	0.00295
6.49351	1.86055	0.00309
6.56168	1.85563	0.00324
6.63130	1.85048	0.00339
6.70241	1.84508	0.00356
6.77507	1.83942	0.00375
6.84932	1.83348	0.00395
6.92521	1.82724	0.00416
7.00280	1.82067	0.00439
7.08215	1.81375	0.00464
7.16332	1.80645	0.00491
7.24638	1.79875	0.00521
7.33138	1.79060	0.00554
7.41840	1.78197	0.00590
7.50751	1.77280	0.00629
7.59878	1.76307	0.00673
7.69231	1.75270	0.00721
7.78816	1.74164	0.00775
7.88644	1.72981	0.00836
7.98722	1.71713	0.00904
8.09061	1.70351	0.00981
8.19672	1.68884	0.01069
8.30565	1.67298	0.01171
8.41751	1.65578	0.01288
8.53242	1.63706	0.01425
8.65052	1.61662	0.01587
8.77193	1.59418	0.01780
8.89680	1.56944	0.02013
9.02527	1.54199	0.02300
9.15751	1.51137	0.02657
9.29368	1.47696	0.03112
9.43396	1.43800	0.03703
9.57854	1.39349	0.04490
9.72763	1.34220	0.05567
9.88142	1.28254	0.07088
10.04016	1.21261	0.09308
10.20408	1.13045	0.12658
10.37344	1.03499	0.17868
10.54852	0.92917	0.26076
10.72961	0.82671	0.38551
10.91703	0.75389	0.55180
11.11111	0.72617	0.73600
11.31222	0.73599	0.91828
11.52074	0.77303	1.09351
11.73709	0.83162	1.26139
11.96172	0.90879	1.42389
12.19512	1.00724	1.58372
12.43781	1.13389	1.73637
12.69036	1.28836	1.86995
12.95337	1.46046	1.97768
13.22751	1.64118	2.06426
13.51351	1.83517	2.13766
13.81215	2.05527	2.18826
14.12429	2.29211	2.19244
