Material: main / GaP / Aspnes
Optical constants. D.E. Aspnes and A. A. Studna. Dielectric functions and optical parameters of Si, Ge, GaP, GaAs, GaSb, InP, InAs, and InSb from 1.5 to 6.0 eV, Phys. Rev. B 27, 985-1009 (1983)
Comments: Crysal orientation: ; Undoped; Room temperature
wavelength (um)	n	k
0.2066	1.309	2.690
0.2101	1.327	2.803
0.2138	1.348	2.934
0.2175	1.385	3.096
0.2214	1.444	3.297
0.2254	1.543	3.556
0.2296	1.778	3.889
0.2339	2.249	4.168
0.2384	2.825	4.170
0.2431	3.342	3.975
0.2480	3.661	3.631
0.2530	3.844	3.358
0.2583	4.062	3.096
0.2638	4.181	2.712
0.2695	4.113	2.371
0.2755	3.978	2.180
0.2818	3.867	2.090
0.2883	3.792	2.058
0.2952	3.754	2.063
0.3024	3.752	2.100
0.3100	3.790	2.171
0.3179	3.890	2.303
0.3263	4.196	2.562
0.3351	5.149	2.451
0.3444	5.406	1.368
0.3542	5.050	0.819
0.3647	4.751	0.568
0.3757	4.518	0.426
0.3875	4.339	0.337
0.3999	4.196	0.275
0.4133	4.081	0.224
0.4275	3.990	0.183
0.4428	3.919	0.118
0.4592	3.805	0.027
0.4769	3.691	0.011
0.4959	3.605	0.006
0.5166	3.535	0.004
0.5391	3.474	0.002
0.5636	3.421	0.000
0.5904	3.375	0.000
0.6199	3.334	0.000
0.6525	3.295	0.000
0.6888	3.262	0.000
0.7293	3.234	0.000
0.7749	3.209	0.000
0.8266	3.178	0.000
