Material: main / GaP / Jellison
Optical constants. G.E. Jellison Jr. Optical functions of GaAs, GaP, and Ge determined by two-channel polarization modulation ellipsometry, Opt. Mat. 1, 151-160 (1992)
Comments: Crysal orientation: ; Room temperature
wavelength (um)	n	k
0.234	2.629	4.189
0.236	2.807	4.174
0.238	3.003	4.153
0.240	3.210	4.106
0.242	3.435	4.024
0.244	3.593	3.879
0.246	3.729	3.728
0.248	3.816	3.583
0.250	3.909	3.478
0.252	3.978	3.347
0.254	4.038	3.265
0.256	4.117	3.161
0.258	4.194	3.063
0.260	4.216	2.914
0.262	4.302	2.776
0.264	4.306	2.634
0.266	4.289	2.505
0.268	4.257	2.383
0.270	4.209	2.290
0.272	4.157	2.221
0.274	4.112	2.154
0.276	4.060	2.114
0.278	4.025	2.082
0.280	3.989	2.059
0.282	3.954	2.040
0.284	3.926	2.029
0.286	3.898	2.024
0.288	3.878	2.020
0.290	3.862	2.022
0.292	3.855	2.019
0.294	3.842	2.027
0.296	3.836	2.032
0.298	3.833	2.042
0.300	3.834	2.054
0.302	3.838	2.066
0.304	3.844	2.084
0.306	3.852	2.102
0.308	3.865	2.123
0.310	3.886	2.146
0.312	3.907	2.170
0.314	3.937	2.199
0.316	3.963	2.239
0.318	4.001	2.276
0.320	4.055	2.328
0.322	4.122	2.383
0.324	4.219	2.438
0.326	4.357	2.496
0.328	4.516	2.528
0.330	4.710	2.522
0.332	4.924	2.461
0.334	5.137	2.336
0.336	5.309	2.160
0.338	5.434	1.923
0.340	5.483	1.678
0.342	5.472	1.446
0.344	5.417	1.257
0.346	5.344	1.103
0.348	5.264	0.977
0.350	5.186	0.874
0.352	5.107	0.794
0.354	5.036	0.726
0.356	4.970	0.668
0.358	4.906	0.615
0.360	4.853	0.576
0.362	4.799	0.539
0.364	4.749	0.503
0.366	4.702	0.474
0.368	4.657	0.448
0.370	4.615	0.426
0.372	4.577	0.404
0.374	4.540	0.385
0.376	4.504	0.366
0.378	4.474	0.351
0.380	4.439	0.336
0.382	4.405	0.320
0.384	4.376	0.309
0.386	4.351	0.297
0.388	4.324	0.287
0.390	4.301	0.275
0.392	4.276	0.266
0.394	4.257	0.257
0.396	4.234	0.248
0.398	4.214	0.239
0.400	4.194	0.231
0.402	4.174	0.224
0.404	4.155	0.216
0.406	4.138	0.209
0.408	4.122	0.202
0.410	4.106	0.197
0.412	4.090	0.191
0.414	4.077	0.184
0.416	4.063	0.178
0.418	4.049	0.173
0.420	4.036	0.167
0.422	4.025	0.163
0.424	4.013	0.157
0.426	3.995	0.150
0.428	3.987	0.144
0.430	3.980	0.136
0.432	3.969	0.129
0.434	3.961	0.123
0.436	3.953	0.116
0.438	3.945	0.107
0.440	3.938	0.097
0.442	3.929	0.085
0.444	3.917	0.073
0.446	3.904	0.062
0.448	3.890	0.053
0.450	3.875	0.045
0.455	3.839	0.022
0.460	3.798	0.010
0.465	3.761	0.006
0.470	3.729	0.003
0.475	3.702	0.002
0.480	3.677	0.000
0.485	3.649	0.000
0.490	3.628	0.000
0.495	3.609	0.000
0.500	3.590	-0.001
0.505	3.573	-0.001
0.510	3.557	-0.002
0.515	3.541	-0.002
0.520	3.527	-0.002
0.525	3.514	-0.002
0.530	3.502	-0.003
0.535	3.486	-0.002
0.540	3.476	-0.002
0.545	3.463	-0.002
0.550	3.452	-0.002
0.555	3.441	-0.002
0.560	3.431	-0.003
0.565	3.422	-0.002
0.570	3.410	-0.002
0.575	3.403	-0.002
0.580	3.393	-0.002
0.585	3.384	-0.002
0.590	3.375	-0.002
0.595	3.368	-0.002
0.600	3.361	-0.002
0.605	3.355	-0.001
0.610	3.347	-0.002
0.615	3.341	-0.001
0.620	3.335	-0.002
0.625	3.329	-0.002
0.630	3.319	-0.002
0.635	3.315	-0.001
0.640	3.310	-0.001
0.645	3.304	-0.002
0.650	3.300	-0.001
0.655	3.295	-0.001
0.660	3.290	-0.001
0.665	3.284	-0.001
0.670	3.280	-0.002
0.675	3.276	-0.001
0.680	3.273	0.000
0.685	3.270	-0.001
0.690	3.263	-0.001
0.695	3.260	-0.001
0.700	3.257	0.000
0.705	3.253	-0.002
0.710	3.249	0.000
0.715	3.247	0.000
0.720	3.240	0.000
0.725	3.238	0.000
0.730	3.233	0.000
0.735	3.230	0.000
0.740	3.227	0.000
0.745	3.224	0.000
0.750	3.222	0.000
0.755	3.220	0.000
0.760	3.217	0.000
0.765	3.213	0.000
0.770	3.210	0.000
0.775	3.207	0.000
0.780	3.205	0.000
0.785	3.201	0.000
0.790	3.201	0.000
0.795	3.198	0.000
0.800	3.197	0.000
0.805	3.194	0.000
0.810	3.191	0.000
0.815	3.190	-0.001
0.820	3.188	0.000
0.825	3.183	0.000
0.830	3.180	0.002
0.835	3.182	0.004
0.840	3.187	0.006
