Material: main / Sc2O3 / Arndt
Optical constants. D. P. Arndt, R. M. A. Azzam, J. M. Bennett, J. P. Borgogno, C. K. Carniglia, W. E. Case, J. A. Dobrowolski, U. J. Gibson, T. Tuttle Hart, F. C. Ho, V. A. Hodgkin, W. P. Klapp, H. A. Macleod, E. Pelletier, M. K. Purvis, D. M. Quinn, D. H. Strome, R. Swenson, P. A. Temple, and T. F. Thonn. Multiple determination of the optical constants of thin-film coating materials, Appl. Opt. 23, 3571-3596 (1984)
Comments: Thin film. Mean values of measurements by different methods.
wavelength (um)	n
0.40	1.93
0.45	1.88
0.50	1.87
0.55	1.86
0.60	1.84
0.65	1.83
0.70	1.83
0.75	1.83
