Material: main / Sc2O3 / Belosludtsev
Optical constants. A. Belosludtsev, K. Juškevičius, L. Ceizaris, R. Samuilovas, S. Stanionytė, V. Jasulaitienė, S. Kičas. Correlation between stoichiometry and properties of scandium oxide films prepared by reactive magnetron sputtering, Appl. Surf. Sci. 427, 312-318 (2018) (Numerical data kindly provided by Alexandr Belosludtsev)
Comments: Stoichiometric 270±5 nm film on SiO2 substrate.
Specs: {"n_absolute": true, "wavelength_vacuum": true, "film_thickness": "270 nm", "substrate": "SiO2"}
wavelength (um)	n	k
0.230	2.35000	5.66E-03
0.234	2.34271	5.31E-03
0.238	2.32371	4.98E-03
0.242	2.30605	4.68E-03
0.246	2.28961	4.39E-03
0.250	2.27430	4.12E-03
0.254	2.26001	3.87E-03
0.258	2.24666	3.63E-03
0.262	2.23416	3.41E-03
0.266	2.22246	3.20E-03
0.270	2.21149	3.00E-03
0.274	2.20118	2.82E-03
0.278	2.19150	2.64E-03
0.282	2.18238	2.48E-03
0.286	2.17380	2.33E-03
0.290	2.16570	2.19E-03
0.294	2.15806	2.05E-03
0.298	2.15084	1.93E-03
0.302	2.14401	1.81E-03
0.306	2.13755	1.70E-03
0.310	2.13143	1.59E-03
0.314	2.12562	1.49E-03
0.318	2.12011	1.40E-03
0.322	2.11488	1.32E-03
0.326	2.10990	1.24E-03
0.330	2.10517	1.16E-03
0.334	2.10066	1.09E-03
0.338	2.09637	1.02E-03
0.342	2.09228	9.59E-04
0.346	2.08838	9.00E-04
0.350	2.08465	8.45E-04
0.354	2.08109	7.93E-04
0.358	2.07768	7.44E-04
0.362	2.07443	6.99E-04
0.366	2.07131	6.56E-04
0.370	2.06833	6.16E-04
0.374	2.06547	5.78E-04
0.378	2.06273	5.42E-04
0.382	2.06010	5.09E-04
0.386	2.05757	4.78E-04
0.390	2.05515	4.48E-04
0.394	2.05282	4.21E-04
0.398	2.05058	3.95E-04
0.402	2.04842	3.71E-04
0.406	2.04635	3.48E-04
0.410	2.04435	3.27E-04
0.414	2.04243	3.07E-04
0.418	2.04058	2.88E-04
0.422	2.03879	2.70E-04
0.426	2.03707	2.53E-04
0.430	2.03541	2.38E-04
0.434	2.03380	2.23E-04
0.438	2.03225	2.10E-04
0.442	2.03076	1.97E-04
0.446	2.02931	1.85E-04
0.450	2.02791	1.73E-04
0.454	2.02656	1.63E-04
0.458	2.02525	1.53E-04
0.462	2.02398	1.43E-04
0.466	2.02275	1.35E-04
0.470	2.02157	1.26E-04
0.474	2.02041	1.18E-04
0.478	2.01930	1.11E-04
0.482	2.01822	1.04E-04
0.486	2.01717	9.80E-05
0.490	2.01615	9.20E-05
0.494	2.01516	8.63E-05
0.498	2.01420	8.10E-05
0.502	2.01327	7.60E-05
0.506	2.01237	7.14E-05
0.510	2.01149	6.70E-05
0.514	2.01064	6.29E-05
0.518	2.00981	5.90E-05
0.522	2.00900	5.54E-05
0.526	2.00821	5.20E-05
0.530	2.00745	4.88E-05
0.534	2.00671	4.58E-05
0.538	2.00598	4.30E-05
0.542	2.00528	4.04E-05
0.546	2.00459	3.79E-05
0.550	2.00393	3.55E-05
0.554	2.00327	3.34E-05
0.558	2.00264	3.13E-05
0.562	2.00202	2.94E-05
0.566	2.00142	2.76E-05
0.570	2.00083	2.59E-05
0.574	2.00026	2.43E-05
0.578	1.99970	2.28E-05
0.582	1.99915	2.14E-05
0.586	1.99862	2.01E-05
0.590	1.99810	1.89E-05
0.594	1.99759	1.77E-05
0.598	1.99709	1.66E-05
0.602	1.99661	1.56E-05
0.606	1.99614	1.46E-05
0.610	1.99567	1.37E-05
0.614	1.99522	1.29E-05
0.618	1.99478	1.21E-05
0.622	1.99435	1.14E-05
0.626	1.99392	1.07E-05
0.630	1.99351	1.00E-05
0.634	1.99310	9.39E-06
0.638	1.99271	8.82E-06
0.642	1.99232	8.28E-06
0.646	1.99194	7.77E-06
0.650	1.99157	7.29E-06
0.654	1.99121	6.84E-06
0.658	1.99085	6.42E-06
0.662	1.99051	6.03E-06
0.666	1.99017	5.66E-06
0.670	1.98983	5.31E-06
0.674	1.98950	4.99E-06
0.678	1.98918	4.68E-06
0.682	1.98887	4.39E-06
0.686	1.98856	4.12E-06
0.690	1.98826	3.87E-06
0.694	1.98796	3.63E-06
0.698	1.98767	3.41E-06
0.702	1.98739	3.20E-06
0.706	1.98711	3.00E-06
0.710	1.98683	2.82E-06
0.714	1.98657	2.65E-06
0.718	1.98630	2.48E-06
0.722	1.98604	2.33E-06
0.726	1.98579	2.19E-06
0.730	1.98554	2.05E-06
0.734	1.98530	1.93E-06
0.738	1.98506	1.81E-06
0.742	1.98482	1.70E-06
0.746	1.98459	1.59E-06
0.750	1.98436	1.50E-06
0.754	1.98414	1.40E-06
0.758	1.98392	1.32E-06
0.762	1.98370	1.24E-06
0.766	1.98349	1.16E-06
0.770	1.98328	1.09E-06
0.774	1.98308	1.02E-06
0.778	1.98287	9.60E-07
0.782	1.98268	9.01E-07
0.786	1.98248	8.45E-07
0.790	1.98229	7.94E-07
0.794	1.98210	7.45E-07
0.798	1.98192	6.99E-07
0.802	1.98174	6.56E-07
0.806	1.98156	6.16E-07
0.810	1.98138	5.78E-07
0.814	1.98121	5.43E-07
0.818	1.98104	5.09E-07
0.822	1.98087	4.78E-07
0.826	1.98071	4.49E-07
0.830	1.98055	4.21E-07
0.834	1.98039	3.95E-07
0.838	1.98023	3.71E-07
0.842	1.98007	3.48E-07
0.846	1.97992	3.27E-07
0.850	1.97977	3.07E-07
0.854	1.97962	2.88E-07
0.858	1.97948	2.70E-07
0.862	1.97934	2.54E-07
0.866	1.97919	2.38E-07
0.870	1.97906	2.23E-07
0.874	1.97892	2.10E-07
0.878	1.97878	1.97E-07
0.882	1.97865	1.85E-07
0.886	1.97852	1.73E-07
0.890	1.97839	1.63E-07
0.894	1.97826	1.53E-07
0.898	1.97814	1.43E-07
0.902	1.97802	1.35E-07
0.906	1.97789	1.26E-07
0.910	1.97777	1.19E-07
0.914	1.97766	1.11E-07
0.918	1.97754	1.04E-07
0.922	1.97742	9.80E-08
0.926	1.97731	9.20E-08
0.930	1.97720	8.64E-08
0.934	1.97709	8.11E-08
0.938	1.97698	7.61E-08
0.942	1.97687	7.14E-08
0.946	1.97677	6.70E-08
0.950	1.97666	6.29E-08
0.954	1.97656	5.90E-08
0.958	1.97646	5.54E-08
0.962	1.97636	5.20E-08
0.966	1.97626	4.88E-08
0.970	1.97616	4.58E-08
0.974	1.97607	4.30E-08
0.978	1.97597	4.04E-08
0.982	1.97588	3.79E-08
0.986	1.97579	3.56E-08
0.990	1.97570	3.34E-08
0.994	1.97561	3.13E-08
0.998	1.97552	2.94E-08
1.002	1.97543	2.76E-08
1.006	1.97534	2.59E-08
1.010	1.97526	2.43E-08
1.014	1.97517	2.28E-08
1.018	1.97509	2.14E-08
1.022	1.97501	2.01E-08
1.026	1.97493	1.89E-08
1.030	1.97485	1.77E-08
1.034	1.97477	1.66E-08
1.038	1.97469	1.56E-08
1.042	1.97461	1.46E-08
1.046	1.97453	1.37E-08
1.050	1.97446	1.29E-08
1.054	1.97438	1.21E-08
1.058	1.97431	1.14E-08
1.062	1.97424	1.07E-08
1.066	1.97417	1.00E-08
1.070	1.97409	9.40E-09
1.074	1.97402	8.80E-09
1.078	1.97395	8.30E-09
1.082	1.97389	7.80E-09
1.086	1.97382	7.30E-09
1.090	1.97375	6.80E-09
1.094	1.97369	6.40E-09
1.098	1.97362	6.00E-09
1.102	1.97356	5.70E-09
1.106	1.97349	5.30E-09
1.110	1.97343	5.00E-09
1.114	1.97337	4.70E-09
1.118	1.97330	4.40E-09
1.122	1.97324	4.10E-09
1.126	1.97318	3.90E-09
1.130	1.97312	3.60E-09
1.134	1.97306	3.40E-09
1.138	1.97301	3.20E-09
1.142	1.97295	3.00E-09
1.146	1.97289	2.80E-09
1.150	1.97283	2.60E-09
1.154	1.97278	2.50E-09
1.158	1.97272	2.30E-09
1.162	1.97267	2.20E-09
1.166	1.97262	2.10E-09
1.170	1.97256	1.90E-09
1.174	1.97251	1.80E-09
1.178	1.97246	1.70E-09
1.182	1.97241	1.60E-09
1.186	1.97235	1.50E-09
1.190	1.97230	1.40E-09
1.194	1.97225	1.30E-09
1.198	1.97220	1.20E-09
