Material: main / Ce / Fernandez-Perea
Optical constants. M. Fernández-Perea, J. A. Aznárez, J. I. Larruquert, J. A. Méndez, L. Poletto, D. Garoli, A. M. Malvezzi, A. Giglia and S.Nannarone. Transmittance and optical constants of Ce films in the 6-1200eV spectral range , J. Appl. Phys. 103, 073501 (2008) (Numerical data kindly provided by Juan Larruquert)
Comments: Density: 6.771 g/cm3. Film deposited at room temperature.
Specs: {"n_absolute": true, "wavelength_vacuum": true}
wavelength (um)	n	k
0.00103238	0.99947037	0.000463787
0.001040136	0.99947459	0.000496
0.001043638	0.9995044	0.000514
0.001047164	0.99953828	0.000487
0.001050713	0.9995309	0.000457
0.001054287	0.99951596	0.000447
0.001068829	0.99948409	0.000453
0.001087581	0.99946496	0.000471
0.001107002	0.99945195	0.000493
0.001127129	0.99944229	0.000514
0.001148002	0.9994339	0.000538
0.001169662	0.99942839	0.000564
0.001192156	0.99942244	0.000589
0.001215531	0.99941332	0.000621
0.001239842	0.99941153	0.0006595
0.001247326	0.99941536	0.000673
0.001257446	0.99941756	0.000683
0.001267732	0.99941683	0.000701
0.001278187	0.99942446	0.000716
0.001288817	0.99942627	0.000731
0.001299625	0.99942705	0.000745
0.001310615	0.99942788	0.000768
0.001321793	0.99943645	0.000777
0.001333163	0.99942632	0.000792
0.001344731	0.99940051	0.000789
0.001349855	0.9993622	0.000796
0.001352801	0.99934197	0.000807
0.001355759	0.99932035	0.000801
0.001358731	0.99926176	0.000785
0.001361715	0.99915667	0.000794
0.001364713	0.99901702	0.000851
0.001367724	0.99883297	0.000983
0.001370748	0.99866574	0.001229
0.001373786	0.99833214	0.001695
0.001376837	0.99844975	0.003207
0.001379902	1.0010341	0.003648
0.00138298	1.0017402	0.001783
0.001386073	1.0011475	0.000506
0.001389179	1.0004684	0.00036
0.001392299	1.0000708	0.000351
0.001395433	0.99971223	0.000414
0.001398581	0.9993792	0.000574
0.001401743	0.99874126	0.000987
0.00140492	0.99881443	0.003035
0.001408111	1.0018285	0.002546
0.001411317	1.0015794	0.000888
0.001414537	1.0011223	0.000435
0.001417772	1.0007494	0.000273
0.001421022	1.000532	0.000243
0.001424287	1.0003919	0.00023
0.001427567	1.0002897	0.000224
0.001430862	1.0002109	0.00022
0.001434172	1.0001455	0.000218
0.001437498	1.0000913	0.000217
0.001440839	1.0000445	0.000217
0.001444196	1.0000037	0.000217
0.001447568	0.99996702	0.000217
0.001450956	0.9999341	0.000218
0.00145436	0.99990237	0.000219
0.00145778	0.99987723	0.000225
0.001461216	0.99985565	0.000222
0.001464668	0.99983123	0.000222
0.001468137	0.99980893	0.000223
0.001471622	0.99978821	0.000224
0.001475124	0.99976904	0.000226
0.001486621	0.99971193	0.000231
0.001501019	0.99965294	0.000235
0.001515699	0.99960094	0.00024
0.001530669	0.99955426	0.000246
0.001545937	0.99951133	0.000253
0.001561514	0.99947205	0.00026
0.001577407	0.99943498	0.000267
0.001593627	0.99939888	0.000274
0.001610184	0.99936385	0.00028
0.001627089	0.99932848	0.000289
0.001644353	0.99929582	0.000298
0.001661986	0.99926429	0.000306
0.001680003	0.99923038	0.000314
0.001698414	0.99919808	0.000327
0.001717233	0.99916744	0.000335
0.001736473	0.999137	0.000347
0.00175615	0.99909639	0.000364
0.001776278	0.99907138	0.0003725
0.001796872	0.99904049	0.000383
0.00181795	0.99900936	0.0003935
0.001839528	0.99897701	0.000406
0.001861624	0.9989439	0.000418
0.001884258	0.99891029	0.000432
0.001907449	0.99887703	0.000444
0.001931218	0.99884053	0.000457
0.001955587	0.99880448	0.000473
0.001980578	0.99877008	0.000488
0.002006217	0.99872984	0.000499
0.002032528	0.99868892	0.000523
0.002059538	0.99865397	0.000541
0.002087276	0.99861491	0.000557
0.002115771	0.99857323	0.000574
0.002145055	0.99853133	0.000592
0.002175161	0.99848746	0.000617
0.00218282	0.99847706	0.0006215
0.002190533	0.99846752	0.0006265
0.002198301	0.99845731	0.0006315
0.002206124	0.99844732	0.0006355
0.002214003	0.99843662	0.0006385
0.002221939	0.99842371	0.000642
0.002229931	0.99841084	0.000647
0.002237982	0.99839864	0.000653
0.00224609	0.9983861	0.000658
0.002254258	0.99837389	0.000664
0.002262485	0.99836209	0.000669
0.002270773	0.99834867	0.000673
0.002279121	0.99833459	0.00068
0.002287531	0.998324	0.000685
0.002296003	0.99830298	0.000684
0.002304539	0.99828012	0.000711
0.002313138	0.9982903	0.000736
0.002321801	0.99829323	0.000717
0.00233053	0.99828262	0.000715
0.002339324	0.99823432	0.0007335
0.002348185	0.99824957	0.0007205
0.002357114	0.99822066	0.0007265
0.00236611	0.99820279	0.000741
0.002375176	0.99819577	0.0007475
0.002384311	0.99818011	0.0007455
0.002393517	0.99815065	0.0007605
0.002402794	0.99814323	0.0007785
0.002412144	0.99813808	0.0007845
0.002421566	0.99812749	0.0007885
0.002431062	0.99811642	0.0007945
0.002469805	0.99804572	0.000818
0.002509801	0.99800127	0.000861
0.002551115	0.99794399	0.000888
0.002593811	0.99787984	0.000924
0.002637961	0.99783093	0.000947
0.00268364	0.99773645	0.001056
0.002730929	0.9977106	0.00103
0.002779915	0.99761827	0.001052
0.002830689	0.99753955	0.001089
0.002883353	0.99746169	0.001127
0.002938014	0.99738285	0.00116
0.002994787	0.99728905	0.001188
0.003053798	0.99714139	0.001234
0.003115181	0.99705081	0.001258
0.003179082	0.99700705	0.0013475
0.003245659	0.99689928	0.0013845
0.003315085	0.99678482	0.001432
0.003387546	0.99666584	0.001484
0.003463245	0.99654795	0.001527
0.003542405	0.99642512	0.001575
0.003625269	0.99627002	0.001617
0.003712101	0.99612974	0.00165
0.003803196	0.99594442	0.001692
0.003898874	0.99579345	0.00175
0.00399949	0.99562955	0.001747
0.004105437	0.9953399	0.001724
0.004153574	0.99506661	0.001754
0.004181591	0.99518094	0.001749
0.004475963	0.99464031	0.001835
0.004508516	0.99440781	0.001832
0.004541545	0.99461958	0.00183
0.004575062	0.99439491	0.001825
0.004609078	0.99411511	0.001822
0.004643603	0.9941608	0.001819
0.004678649	0.99425106	0.001817
0.004714228	0.99386929	0.001818
0.004750352	0.99350069	0.00182
0.004787034	0.99361806	0.001825
0.004824287	0.99358548	0.001831
0.004862125	0.99342611	0.001833
0.004900561	0.99311395	0.001832
0.004939609	0.99329778	0.001828
0.004979285	0.99326828	0.001823
0.005019603	0.9929765	0.001816
0.005060579	0.99280934	0.00181
0.00510223	0.99217995	0.001804
0.005144572	0.99224669	0.001798
0.005187623	0.99215579	0.001793
0.0052314	0.99189985	0.001792
0.005275923	0.99171325	0.001794
0.00532121	0.99143151	0.001793
0.005367281	0.99140213	0.001774
0.005414157	0.99125817	0.001746
0.005461858	0.99104548	0.001732
0.005510408	0.99085399	0.001735
0.005559829	0.9904131	0.001741
0.005610144	0.98982656	0.001753
0.005661378	0.99011594	0.001802
0.005713557	0.9895588	0.001867
0.005766706	0.98929759	0.001825
0.005820854	0.98928904	0.001712
0.005876028	0.98896856	0.001655
0.005932258	0.9884362	0.001654
0.005989574	0.98794817	0.001663
0.006048009	0.98727382	0.001638
0.006107595	0.9873303	0.00165
0.006168368	0.98691405	0.00169
0.006230361	0.98606834	0.0017635
0.006293614	0.98570448	0.0018395
0.006358163	0.98512089	0.0019315
0.006424051	0.98439937	0.002044
0.006491319	0.98396026	0.0021755
0.00656001	0.98317015	0.002354
0.00663017	0.98246063	0.002538
0.006701848	0.98180083	0.00276
0.006775092	0.98144199	0.003011
0.006849955	0.98029542	0.003301
0.006926491	0.97944779	0.003623
0.007004756	0.97876206	0.004002
0.007084811	0.9776247	0.004432
0.007166716	0.97693469	0.004936
0.007250537	0.97604338	0.00549
0.007336342	0.97513701	0.005958
0.007424203	0.97397612	0.006581
0.007514193	0.97286946	0.007286
0.007606392	0.97147054	0.008102
0.007700881	0.97031532	0.009058
0.007797748	0.96903558	0.01016
0.007897082	0.96757723	0.011456
0.00799898	0.96604558	0.01293
0.008103542	0.96431102	0.014688
0.008210873	0.96269737	0.016749
0.008321086	0.96096922	0.019188
0.008434298	0.95934368	0.022093
0.008550634	0.95789828	0.025518
0.008670223	0.95718701	0.029405
0.008793205	0.95644594	0.033534
0.008919726	0.95585237	0.037846
0.009049941	0.95514159	0.042711
0.009184014	0.95421397	0.048891
0.009322119	0.95408906	0.057414
0.009464442	0.95646212	0.06905
0.009611177	0.96422986	0.081584
0.009762534	0.97766159	0.092848
0.009918735	0.99720458	0.099846
0.010080015	1.0193625	0.098524
0.010246627	1.0462277	0.091631
0.010418839	1.0663801	0.056323
0.010596939	1.0546863	0.027453
0.010781234	1.0404372	0.016722
0.010972052	1.0289636	0.012064
0.011169747	1.0213287	0.013683
0.011374696	1.0209707	0.01075
0.011587307	1.0142468	0.007958
0.011808018	1.0147117	0.008201
0.0120373	1.0098702	0.007549
0.012275662	1.0056308	0.005837
0.012523655	1.0019963	0.0059395
0.012781875	0.9992085	0.0059695
0.013050967	0.99658558	0.006056
0.013331633	0.99401718	0.0061785
0.013624636	0.99151829	0.006348
0.013930808	0.98900795	0.00677
0.014251056	0.98660925	0.007073
0.014586375	0.98434508	0.007443
0.014937854	0.98172944	0.007844
0.01530669	0.97939878	0.008321
0.015694201	0.9767237	0.008849
0.016101843	0.97389116	0.00939
0.016531225	0.97094977	0.00997
0.016984135	0.96819138	0.010637
0.017462562	0.96465235	0.01119525
0.017968723	0.96106086	0.012081
0.018505103	0.9572712	0.013108
0.01907449	0.95339596	0.014266
0.01968003	0.94824521	0.014934
0.020325277	0.94289611	0.016419
0.021014269	0.93670947	0.018138
0.021751612	0.92967897	0.020377
0.02254258	0.92191474	0.023466
0.023393243	0.91348912	0.027303
0.024310625	0.90382579	0.03186
0.025302895	0.89251109	0.037138
0.025830039	0.88806782	0.041841
0.026379614	0.88229785	0.046211
0.026953084	0.87637839	0.050259
0.027552042	0.87048463	0.054382
0.028178224	0.86291112	0.059412
0.028833532	0.85461122	0.067831
0.029520045	0.84711134	0.071375
0.030240046	0.83899037	0.081045
0.030996047	0.83051181	0.0882555
0.031790817	0.81963794	0.0989855
0.032627418	0.80996437	0.1097355
0.03350924	0.7983863	0.123542
0.034440052	0.78674163	0.1386935
0.035424054	0.77346732	0.157639
0.036465937	0.7610194	0.181065
0.037570966	0.74890816	0.209185
0.038745059	0.73861963	0.244377
0.039994899	0.73465359	0.287019
0.041328062	0.7404677	0.336069
0.042753168	0.75954422	0.388627
0.044280067	0.79266699	0.438338
0.045920069	0.84505089	0.477617
0.047686226	0.90258877	0.490747
0.049593675	0.95482282	0.494237
0.051660078	1.0052054	0.487328
0.053906168	1.0455642	0.466622
0.056356449	1.0797965	0.438031
0.059040089	1.1045457	0.399461
0.061992094	1.106279	0.354423
0.065254835	1.0949366	0.309823
0.068880104	1.0730772	0.28075761
0.074577717	0.97828623	0.217246363
0.076889943	0.91954609	0.202323164
0.079350845	0.84073911	0.225845061
0.081974968	0.78007714	0.266136408
0.084777368	0.72492532	0.324811866
0.087776727	0.67318318	0.394968865
0.090997969	0.65264846	0.50590628
0.103320587	0.68432957	0.716318356
0.112711873	0.77212064	0.89468852
0.123983072	0.85471045	1.009489668
0.137758984	0.94899195	1.124290816
0.154979382	1.0605667	1.239094949
0.177119357	1.1929987	1.353895867
0.206638625	1.3595125	1.468694375
