Material: main / Mo / Windt
Optical constants. D. L. Windt, W. C. Cash, M. Scott, P. Arendt, B. Newnam, R. F. Fisher, A. B. Swartzlander. Optical constants for thin films of Ti, Zr, Nb, Mo, Ru, Rh, Pd, Ag, Hf, Ta, W, Re, Ir, Os, Pt, and Au from 24 Å to 1216 Å, Appl. Opt. 27, 246-278 (1988)
wavelength (um)	n	k
0.00236	0.99744	0.00164
0.00316	0.99740	0.00194
0.00447	0.99724	0.00439
0.00676	0.9889	0.00197
0.01140	0.9581	0.00501
0.01355	0.9413	0.00604
0.01714	0.876	0.0282
0.02430	0.813	0.169
0.02563	0.832	0.168
0.03038	0.876	0.250
0.03270	0.912	0.255
0.03568	0.891	0.179
0.03793	0.832	0.157
0.04059	0.797	0.170
0.04478	0.749	0.203
0.04607	0.705	0.234
0.04895	0.695	0.325
0.05391	0.673	0.464
0.05843	0.672	0.570
0.06163	0.712	0.608
0.06714	0.798	0.779
0.07185	0.845	0.734
0.07359	0.902	0.807
0.07437	0.909	0.780
0.08345	0.968	0.778
0.08780	1.040	0.807
0.09198	1.080	0.838
0.09321	1.030	0.791
0.09888	1.080	0.786
0.10258	1.150	0.759
0.10482	1.110	0.745
0.10667	1.170	0.725
0.10857	1.110	0.722
0.11350	1.080	0.677
0.12007	1.100	0.757
0.12157	1.090	0.773
