Material: main / Re / Windt
Optical constants. D. L. Windt, W. C. Cash, M. Scott, P. Arendt, B. Newnam, R. F. Fisher, A. B. Swartzlander. Optical constants for thin films of Ti, Zr, Nb, Mo, Ru, Rh, Pd, Ag, Hf, Ta, W, Re, Ir, Os, Pt, and Au from 24 Å to 1216 Å, Appl. Opt. 27, 246-278 (1988)
wavelength (um)	n	k
0.00236	0.99720	0.00262
0.00316	0.99772	0.00358
0.00447	0.99431	0.00715
0.00676	0.9883	0.00912
0.01140	0.9664	0.0247
0.01355	0.9473	0.0246
0.02430	0.895	0.199
0.02563	0.881	0.181
0.03038	0.918	0.188
0.03270	0.861	0.147
0.03568	0.803	0.175
0.03793	0.766	0.204
0.04059	0.730	0.234
0.04478	0.687	0.336
0.04607	0.663	0.405
0.04895	0.702	0.521
0.05391	0.786	0.723
0.05843	0.779	0.783
0.06163	0.874	0.866
0.06714	1.023	0.969
0.07185	1.067	0.937
0.07359	1.071	0.954
0.07437	1.051	0.920
0.08345	1.102	0.853
0.08780	1.125	0.838
0.09198	1.148	0.888
0.09321	1.103	0.881
0.09888	1.221	0.910
0.10258	1.274	0.918
0.10482	1.196	0.946
0.10667	1.259	0.958
0.10857	1.200	0.905
0.11350	1.330	0.933
0.12007	1.230	0.901
0.12157	1.330	0.922
