Material: main / B / Fernandez-Perea
Optical constants. M. Fernández-Perea, J. I. Larruquert, J. A. Aznárez, J. A. Méndez, M. Vidal-Dasilva, E. Gullikson, A. Aquila, R. Soufli, and J. L. G. Fierro. Optical constants of electron-beam evaporated boron films in the 6.8-900eV photon energy range, J. Opt. Soc. Am. A 24, 3800-3807 (2007) (Numerical data kindly provided by Juan Larruquert)
Comments: Density: 2.10 g/cm3. Film deposited at room temperature.
Specs: {"n_absolute": true, "wavelength_vacuum": true}
wavelength (um)	n	k
0.001378047	0.99948386	0.000051
0.001388047	0.99947758	0.000052
0.001398047	0.99947018	0.000053
0.001408048	0.99946278	0.000055
0.001418048	0.99945533	0.000056
0.001428048	0.99944742	0.000057
0.001438049	0.99943974	0.000059
0.001448049	0.99943165	0.000061
0.001458049	0.99942374	0.000062
0.00146805	0.99941594	0.000064
0.00147805	0.99940792	0.000066
0.00148805	0.99939953	0.000068
0.001498051	0.99939148	0.00007
0.001508051	0.99938343	0.000072
0.001518051	0.99937537	0.000074
0.001528052	0.99936724	0.000076
0.001538052	0.99935954	0.000078
0.001548052	0.99935144	0.00008
0.001558053	0.99934295	0.000082
0.001568053	0.9993348	0.000084
0.001578053	0.99932685	0.000086
0.001588054	0.99931866	0.000088
0.001598054	0.99931048	0.000091
0.001608782	0.99930152	0.000093
0.001619691	0.99929262	0.000095
0.001630601	0.99928354	0.000097
0.00164151	0.9992746	0.0001
0.001652419	0.99926531	0.000102
0.001663329	0.9992561	0.000104
0.001674238	0.99924711	0.000106
0.001685148	0.99923733	0.000108
0.001696057	0.99922776	0.00011
0.001706967	0.99921826	0.000112
0.001717876	0.9992084	0.000115
0.001728786	0.99919868	0.000117
0.001739695	0.99918912	0.000119
0.001750605	0.9991786	0.000121
0.001761514	0.99916854	0.000124
0.001772423	0.99915838	0.000126
0.001783333	0.99914786	0.000128
0.001794242	0.99913733	0.000131
0.001805152	0.99912661	0.000134
0.001816061	0.99911627	0.000136
0.001826971	0.99910516	0.000139
0.00183788	0.99909478	0.000142
0.00184879	0.99908392	0.000145
0.001859699	0.99907268	0.000148
0.001870609	0.99906226	0.000151
0.001881518	0.99905117	0.000154
0.001892428	0.99903984	0.000158
0.001903337	0.99902937	0.000161
0.001914246	0.99901808	0.000165
0.001925156	0.99900749	0.000168
0.001936065	0.99899624	0.000172
0.001946975	0.99898537	0.000176
0.001957884	0.99897482	0.00018
0.001968794	0.99896396	0.000183
0.001979703	0.99895278	0.000187
0.001990613	0.99894185	0.000191
0.002001522	0.99893086	0.000195
0.002012432	0.99892035	0.000199
0.002023341	0.99890939	0.000202
0.002034251	0.99889796	0.000206
0.00204516	0.99888695	0.00021
0.002056069	0.99887573	0.000214
0.00206307	0.99886851	0.000216
0.00206807	0.9988633	0.000218
0.00207307	0.99885824	0.00022
0.00207807	0.99885295	0.000222
0.00208307	0.99884814	0.000224
0.002088071	0.99884292	0.000226
0.002093071	0.9988378	0.000228
0.002098071	0.99883223	0.00023
0.002103071	0.99882699	0.000232
0.002108071	0.99882176	0.000234
0.002113071	0.99881648	0.000236
0.002118072	0.99881166	0.000238
0.002123072	0.99880646	0.00024
0.002128072	0.99880089	0.000242
0.002133072	0.99879567	0.000244
0.002138072	0.99879062	0.000246
0.002143072	0.99878531	0.000249
0.002148073	0.99878023	0.000251
0.002153073	0.99877514	0.000253
0.002158073	0.99877001	0.000255
0.002163073	0.99876512	0.000258
0.002168073	0.99875996	0.00026
0.002173073	0.99875495	0.000262
0.002178074	0.99875026	0.000264
0.002183074	0.99874489	0.000266
0.002188074	0.99874024	0.000268
0.002193074	0.99873508	0.00027
0.002198074	0.99872958	0.000272
0.002203074	0.998724	0.000273
0.002208075	0.99871763	0.000275
0.002225075	0.99869804	0.000282
0.002250076	0.99865323	0.000311
0.002275077	0.99866363	0.000364
0.002300078	0.99870934	0.000356
0.002325079	0.99871567	0.000302
0.002350079	0.9986203	0.000257
0.00237508	0.99857175	0.000268
0.002400081	0.99852564	0.000284
0.002425082	0.99848533	0.000294
0.002450083	0.99844957	0.000305
0.002475084	0.99841197	0.000322
0.002500084	0.99837493	0.000331
0.002525085	0.99834232	0.000348
0.002550086	0.99830924	0.000359
0.002575087	0.998276	0.000373
0.002600088	0.99824029	0.000385
0.002625089	0.99820794	0.000404
0.002650089	0.99817628	0.000414
0.00267509	0.99814223	0.000426
0.002700091	0.99810733	0.000436
0.002725092	0.99807466	0.000451
0.002750093	0.99803664	0.000467
0.002775094	0.99800641	0.000485
0.002800095	0.99796818	0.000494
0.002850096	0.99789675	0.000521
0.002900098	0.99782159	0.000547
0.0029501	0.99774418	0.000579
0.003000101	0.99766441	0.000615
0.003050103	0.99759345	0.000653
0.003100105	0.99750919	0.000683
0.003150106	0.99742374	0.000722
0.003200108	0.99733949	0.000766
0.00325011	0.99725487	0.000813
0.003300111	0.99717242	0.000858
0.003350113	0.99708775	0.000912
0.003400115	0.9970062	0.000966
0.003450117	0.99692132	0.001018
0.003500118	0.99684227	0.001074
0.00355012	0.99675803	0.001131
0.003600122	0.99667285	0.001193
0.003650123	0.99659239	0.00126
0.003700125	0.99651348	0.001328
0.003750127	0.99643993	0.00139
0.003800128	0.99636574	0.001451
0.00385013	0.99628606	0.001509
0.003900132	0.99620078	0.001572
0.003950133	0.99611049	0.001633
0.004000135	0.99601325	0.001714
0.004050137	0.99594001	0.001812
0.004100139	0.99588664	0.001868
0.00415014	0.99577073	0.001938
0.004200142	0.99568626	0.002022318
0.004250144	0.99559959	0.002106636
0.004300145	0.99551053	0.002190955
0.004350147	0.99541325	0.002275273
0.004400149	0.99529817	0.002386
0.00445015	0.99520877	0.002515
0.004500152	0.99511884	0.002646
0.004550154	0.9950517	0.002792
0.004600155	0.99499623	0.002943
0.004650157	0.99496215	0.003086
0.004700159	0.9949471	0.003212
0.00475016	0.99492773	0.003323
0.004800162	0.99491516	0.00342
0.004900165	0.99479788	0.003615
0.005000169	0.99472653	0.003869
0.005100172	0.99472772	0.004102
0.005200176	0.9947089	0.004214
0.005300179	0.99454063	0.00432
0.005400182	0.99428384	0.004529
0.005500186	0.99404646	0.004927
0.005600189	0.99400251	0.005436
0.005700193	0.99402031	0.005651
0.005800196	0.99355409	0.005733
0.005900199	0.99233608	0.006603
0.006000203	0.99170691	0.009404
0.006100206	0.99413792	0.012721
0.006200209	0.99793836	0.01333
0.006300213	1.0012271	0.012492
0.006400216	1.0036073	0.009511
0.00650022	1.0053404	0.008339
0.006600223	1.0063229	0.0015955
0.006700226	1.0018977	0.000256801
0.006750228	1.0009069	0.000262288
0.00680023	1.0001581	0.000264769
0.006850231	0.99955572	0.000268233
0.006900233	0.99903929	0.000276641
0.006950235	0.99859494	0.000285017
0.007000236	0.99819743	0.000287435
0.007050238	0.99783374	0.000296745
0.00710024	0.99751075	0.000303067
0.007150242	0.99720105	0.000304454
0.007200243	0.99691646	0.000316619
0.007250245	0.99663951	0.000323846
0.007300246	0.99638523	0.000327139
0.007350248	0.99614826	0.000337242
0.00740025	0.99590657	0.000343417
0.007450252	0.99567975	0.000348596
0.007500253	0.99546648	0.000346973
0.007550255	0.99524564	0.000358898
0.007600257	0.99504061	0.00037271
0.007650258	0.9948444	0.000368159
0.00770026	0.99463629	0.000384788
0.007750262	0.99444751	0.000383112
0.007800263	0.99425509	0.00040061
0.007850265	0.99406721	0.000405607
0.007900267	0.99388654	0.000400082
0.007950268	0.99369809	0.000424123
0.00800027	0.99351871	0.000412877
0.008050272	0.9933347	0.00042731
0.008100273	0.99315482	0.000441691
0.008150275	0.99298364	0.000451288
0.008200277	0.9928048	0.000467461
0.008250279	0.99263182	0.00047509
0.008300281	0.99245665	0.000491161
0.008350282	0.99228688	0.000494963
0.008400284	0.99211668	0.000495939
0.008450286	0.99194344	0.000524985
0.008500287	0.99178466	0.000519364
0.008550289	0.99160677	0.000522155
0.008600291	0.99143966	0.000548205
0.008650292	0.99126697	0.000549076
0.008700294	0.99109495	0.00055829
0.008750295	0.99092945	0.000566546
0.008800297	0.99075463	0.000572
0.008925301	0.99032166	0.000609
0.009050305	0.98990115	0.000652
0.00917531	0.98948531	0.000701
0.009300314	0.98906792	0.000742
0.009425318	0.98866626	0.000789
0.009550323	0.98825827	0.000807
0.009675327	0.98784296	0.000803
0.009800331	0.98741229	0.00082
0.009925335	0.98695528	0.000848
0.01005034	0.98649733	0.000894
0.010175343	0.98605962	0.000945
0.010300348	0.98561055	0.000989
0.010425352	0.98515011	0.00103
0.010550356	0.98470465	0.001092
0.01067536	0.98424434	0.001135
0.010800364	0.98379164	0.001188
0.010925369	0.98333271	0.00124
0.011050373	0.98286111	0.001281
0.011175378	0.98238984	0.001333
0.011300382	0.98191392	0.001388
0.011425386	0.98143999	0.0014385
0.01155039	0.98095623	0.0015
0.011675394	0.98046648	0.001547
0.011800398	0.97997814	0.001606
0.011925402	0.97947373	0.001664
0.012050407	0.97896371	0.001721
0.012175411	0.97846817	0.001787
0.012300415	0.97792799	0.001832
0.01242542	0.97742575	0.001876
0.012550424	0.97687856	0.001975618
0.012675428	0.97634948	0.002057162
0.012800432	0.97581973	0.002138706
0.012925437	0.97528802	0.00222025
0.013050441	0.97475358	0.002301794
0.013175445	0.97421592	0.002383338
0.013300449	0.97367469	0.002464882
0.013425453	0.9731296	0.002546426
0.013550458	0.97258043	0.002627971
0.013675462	0.97202698	0.002709515
0.013800466	0.97146913	0.002791059
0.01392547	0.9709068	0.002872603
0.014050475	0.97034011	0.002954147
0.014175479	0.96977043	0.003035691
0.014400486	0.96872841	0.00315
0.014650495	0.96751338	0.003332
0.014900503	0.96631542	0.003504
0.015150512	0.96507471	0.003663
0.01540052	0.96382575	0.003893
0.015650529	0.96256606	0.00409
0.015900537	0.96131015	0.0042
0.016150546	0.95997255	0.004455
0.016400554	0.958627	0.00457
0.016650562	0.95721106	0.004771
0.016900571	0.95580954	0.005014
0.017150579	0.95439116	0.005168
0.017400588	0.95294921	0.005272
0.017650596	0.95144248	0.005724
0.017900605	0.94988628	0.0058065
0.018150613	0.94833877	0.006082
0.018400622	0.94680802	0.006263
0.01865063	0.9452029	0.006654
0.018900638	0.94367959	0.0067145
0.019300652	0.94078674	0.007236
0.019800669	0.93729638	0.0079
0.020300686	0.93370583	0.008601
0.020800703	0.92995507	0.009488
0.021300719	0.92621782	0.010412
0.021800737	0.92240799	0.011411
0.022300753	0.91850656	0.012474
0.02280077	0.91460363	0.013662
0.023300787	0.91062889	0.014809
0.023800804	0.90659844	0.015932
0.02430082	0.90242271	0.017147
0.024800838	0.8982714	0.0181906
0.025300854	0.89364145	0.019327
0.025800872	0.88894698	0.020803
0.026300889	0.88422407	0.0222105
0.026800905	0.87942285	0.023949
0.027300922	0.8746111	0.025543
0.027800939	0.86979314	0.027171
0.028300956	0.86495305	0.0288185
0.028800973	0.85999279	0.0303055
0.029300989	0.85452254	0.032154
0.029801006	0.84882015	0.0334875
0.030301023	0.84280158	0.035361
0.030801041	0.83662808	0.037405
0.031301058	0.83031321	0.039951
0.031801074	0.82404089	0.042741
0.032301091	0.81728417	0.04598
0.032801107	0.8114665	0.048956
0.033301125	0.80458528	0.052175
0.033801142	0.79845644	0.054914
0.034301158	0.79210173	0.058792
0.034801175	0.78525596	0.061946
0.035301192	0.77840709	0.064829
0.035801209	0.7711933	0.068202
0.036301226	0.76367536	0.072608
0.036801242	0.75604315	0.077853
0.03730126	0.74855518	0.081845
0.037801276	0.74110204	0.08699
0.038301294	0.73324201	0.089542
0.03880131	0.72673819	0.099044
0.039301328	0.7167527	0.10325
0.039801344	0.71148017	0.111234
0.040301361	0.70443431	0.115094
0.040801378	0.69661147	0.121457
0.041301396	0.68927104	0.127951
0.041801412	0.68204575	0.134773
0.042301428	0.67481198	0.141446
0.042801445	0.66788098	0.147947
0.043301463	0.66065377	0.154562
0.043801479	0.65314444	0.161057
0.044301496	0.64510391	0.167136
0.044801512	0.63625259	0.172885
0.047276751	0.5929281	0.226258845
0.051627108	0.53906206	0.328540968
0.074299991	0.58147806	0.903451
0.104799993	0.90307	1.514324
0.141199981	1.8167955	1.828389
0.170299973	2.2362118	1.590277
