Material: main / Nb / Windt
Optical constants. D. L. Windt, W. C. Cash, M. Scott, P. Arendt, B. Newnam, R. F. Fisher, A. B. Swartzlander. Optical constants for thin films of Ti, Zr, Nb, Mo, Ru, Rh, Pd, Ag, Hf, Ta, W, Re, Ir, Os, Pt, and Au from 24 Å to 1216 Å, Appl. Opt. 27, 246-278 (1988)
wavelength (um)	n	k
0.00236	0.99826	0.00109
0.00316	0.99810	0.00129
0.00447	0.99687	0.00324
0.00676	0.99074	0.00177
0.01140	0.9689	0.00563
0.01355	0.9571	0.0101
0.01714	0.9100	0.0359
0.02430	0.8460	0.112
0.02563	0.8450	0.132
0.03038	0.8790	0.173
0.03270	0.8960	0.195
0.03568	0.9080	0.192
0.03793	0.8900	0.203
0.04059	0.8650	0.172
0.04478	0.8160	0.212
0.04607	0.8020	0.218
0.04895	0.8170	0.319
0.05391	0.8060	0.329
0.05843	0.8110	0.421
0.06163	0.8070	0.379
0.06714	0.8360	0.461
0.07185	0.8460	0.484
0.07359	0.8580	0.559
0.07437	0.8590	0.547
0.08345	0.8870	0.622
0.08780	0.8780	0.606
0.09198	0.9270	0.664
0.09321	0.9560	0.701
0.09888	0.9570	0.761
0.10258	0.9230	0.770
0.10482	1.0300	0.848
0.10667	1.0900	0.861
0.10857	1.0800	0.884
0.11350	1.0600	0.884
0.12007	1.1400	0.938
0.12157	1.3300	0.995
