Material: semiconductor alloys / AlN-Al2O3 / Hartnett-6.53
Optical constants. T. M. Hartnett et al.. Optical properties of ALON (aluminum oxynitride), IR Phys. Technol, 39, 203-211 (1998)
Comments: Nitrogen content: 6.53 at.%
wavelength (um)	n	k
0.24	1.907	5.466E-6
0.34	1.820	5.6278E-7
0.40	1.804	5.157E-7
0.60	1.770	6.112E-7
1.0	1.748	6.685E-7
2.8	1.722	2.406E-6
3.4	1.709	1.190E-6
4.0	1.692	5.0611E-6
4.6	1.671	2.669E-5
5.0	1.656	6.358E-5
5.4	1.618	3.137E-4
5.6	1.604	3.736E-4
