Material: main / Ta2O5 / Gao
Optical constants. L. Gao, F. Lemarchand, and M. Lequime. Exploitation of multiple incidences spectrometric measurements for thin film reverse engineering, Opt. Express 20, 15734-15751 (2012) (Numerical data kindly provided by F. Lemarchand)
Comments: 400-nm monolayer deposited on 160-Âµm BK7 substrate using the ion assistance electronic beam deposition technique.
wavelength (um)	n	k
0.350	2.317048	0.000655
0.354	2.309832	0.000619
0.358	2.302962	0.000585
0.362	2.296414	0.000553
0.366	2.290169	0.000523
0.370	2.284205	0.000495
0.374	2.278507	0.000468
0.378	2.273056	0.000443
0.382	2.267838	0.000419
0.386	2.262840	0.000397
0.390	2.258048	0.000376
0.394	2.253451	0.000355
0.398	2.249037	0.000336
0.402	2.244797	0.000318
0.406	2.240720	0.000301
0.410	2.236799	0.000284
0.414	2.233025	0.000269
0.418	2.229390	0.000254
0.422	2.225887	0.000240
0.426	2.222510	0.000226
0.430	2.219252	0.000214
0.434	2.216108	0.000201
0.438	2.213072	0.000190
0.442	2.210139	0.000179
0.446	2.207304	0.000168
0.450	2.204562	0.000158
0.454	2.201910	0.000149
0.458	2.199343	0.000140
0.462	2.196858	0.000131
0.466	2.194451	0.000123
0.470	2.192118	0.000115
0.474	2.189857	0.000108
0.478	2.187664	0.000100
0.482	2.185537	0.000094
0.486	2.183473	0.000087
0.490	2.181469	0.000081
0.494	2.179523	0.000075
0.498	2.177633	0.000070
0.502	2.175796	0.000065
0.506	2.174010	0.000060
0.510	2.172274	0.000055
0.514	2.170586	0.000051
0.518	2.168943	0.000046
0.522	2.167345	0.000042
0.526	2.165788	0.000039
0.530	2.164273	0.000035
0.534	2.162797	0.000032
0.538	2.161360	0.000029
0.542	2.159959	0.000026
0.546	2.158593	0.000023
0.550	2.157262	0.000021
0.554	2.155964	0.000018
0.558	2.154697	0.000016
0.562	2.153462	0.000014
0.566	2.152256	0.000012
0.570	2.151080	0.000010
0.574	2.149931	0.000009
0.578	2.148809	0.000007
0.582	2.147714	0.000006
0.586	2.146643	0.000005
0.590	2.145598	0.000004
0.594	2.144576	0.000003
0.598	2.143577	0.000002
0.602	2.142601	0.000001
0.606	2.141646	0.000001
0.610	2.140712	0.000001
0.614	2.139799	0
0.618	2.138906	0
0.622	2.138032	0
0.626	2.137176	0
0.630	2.136339	0
0.634	2.135520	0
0.638	2.134717	0
0.642	2.133931	0
0.646	2.133162	0
0.650	2.132408	0
0.654	2.131669	0
0.658	2.130946	0
0.662	2.130236	0
0.666	2.129541	0
0.670	2.128860	0
0.674	2.128191	0
0.678	2.127536	0
0.682	2.126893	0
0.686	2.126263	0
0.690	2.125645	0
0.694	2.125038	0
0.698	2.124443	0
0.702	2.123858	0
0.706	2.123285	0
0.710	2.122722	0
0.714	2.122169	0
0.718	2.121626	0
0.722	2.121093	0
0.726	2.120570	0
0.730	2.120056	0
0.734	2.119551	0
0.738	2.119055	0
0.742	2.118567	0
0.746	2.118088	0
0.750	2.117617	0
0.754	2.117155	0
0.758	2.116700	0
0.762	2.116253	0
0.766	2.115813	0
0.770	2.115381	0
0.774	2.114955	0
0.778	2.114537	0
0.782	2.114126	0
0.786	2.113722	0
0.790	2.113324	0
0.794	2.112932	0
0.798	2.112547	0
0.802	2.112168	0
0.806	2.111794	0
0.810	2.111427	0
0.814	2.111066	0
0.818	2.110710	0
0.822	2.110359	0
0.826	2.110015	0
0.830	2.109675	0
0.834	2.109340	0
0.838	2.109011	0
0.842	2.108687	0
0.846	2.108367	0
0.850	2.108052	0
0.854	2.107742	0
0.858	2.107437	0
0.862	2.107136	0
0.866	2.106839	0
0.870	2.106547	0
0.874	2.106259	0
0.878	2.105975	0
0.882	2.105695	0
0.886	2.105419	0
0.890	2.105147	0
0.894	2.104879	0
0.898	2.104615	0
0.902	2.104354	0
0.906	2.104097	0
0.910	2.103844	0
0.914	2.103594	0
0.918	2.103347	0
0.922	2.103104	0
0.926	2.102864	0
0.930	2.102628	0
0.934	2.102394	0
0.938	2.102164	0
0.942	2.101937	0
0.946	2.101713	0
0.950	2.101491	0
0.954	2.101273	0
0.958	2.101057	0
0.962	2.100845	0
0.966	2.100635	0
0.970	2.100428	0
0.974	2.100223	0
0.978	2.100021	0
0.982	2.099822	0
0.986	2.099625	0
0.990	2.099431	0
0.994	2.099239	0
0.998	2.099049	0
1.002	2.098862	0
1.006	2.098677	0
1.010	2.098495	0
1.014	2.098315	0
1.018	2.098136	0
1.022	2.097961	0
1.026	2.097787	0
1.030	2.097615	0
1.034	2.097446	0
1.038	2.097278	0
1.042	2.097112	0
1.046	2.096949	0
1.050	2.096787	0
1.054	2.096627	0
1.058	2.096470	0
1.062	2.096314	0
1.066	2.096159	0
1.070	2.096007	0
1.074	2.095856	0
1.078	2.095707	0
1.082	2.095560	0
1.086	2.095415	0
1.090	2.095271	0
1.094	2.095129	0
1.098	2.094988	0
1.102	2.094849	0
1.106	2.094712	0
1.110	2.094576	0
1.114	2.094441	0
1.118	2.094308	0
1.122	2.094177	0
1.126	2.094047	0
1.130	2.093918	0
1.134	2.093791	0
1.138	2.093665	0
1.142	2.093541	0
1.146	2.093418	0
1.150	2.093296	0
1.154	2.093175	0
1.158	2.093056	0
1.162	2.092938	0
1.166	2.092821	0
1.170	2.092706	0
1.174	2.092592	0
1.178	2.092479	0
1.182	2.092367	0
1.186	2.092256	0
1.190	2.092147	0
1.194	2.092038	0
1.198	2.091931	0
1.202	2.091825	0
1.206	2.091720	0
1.210	2.091616	0
1.214	2.091513	0
1.218	2.091411	0
1.222	2.091310	0
1.226	2.091210	0
1.230	2.091111	0
1.234	2.091013	0
1.238	2.090916	0
1.242	2.090820	0
1.246	2.090725	0
1.250	2.090631	0
1.254	2.090538	0
1.258	2.090446	0
1.262	2.090354	0
1.266	2.090264	0
1.270	2.090174	0
1.274	2.090085	0
1.278	2.089998	0
1.282	2.089911	0
1.286	2.089824	0
1.290	2.089739	0
1.294	2.089654	0
1.298	2.089571	0
1.302	2.089488	0
1.306	2.089405	0
1.310	2.089324	0
1.314	2.089243	0
1.318	2.089163	0
1.322	2.089084	0
1.326	2.089006	0
1.330	2.088928	0
1.334	2.088851	0
1.338	2.088775	0
1.342	2.088699	0
1.346	2.088624	0
1.350	2.088550	0
1.354	2.088477	0
1.358	2.088404	0
1.362	2.088331	0
1.366	2.088260	0
1.370	2.088189	0
1.374	2.088119	0
1.378	2.088049	0
1.382	2.087980	0
1.386	2.087911	0
1.390	2.087843	0
1.394	2.087776	0
1.398	2.087709	0
1.402	2.087643	0
1.406	2.087578	0
1.410	2.087513	0
1.414	2.087449	0
1.418	2.087385	0
1.422	2.087321	0
1.426	2.087259	0
1.430	2.087196	0
1.434	2.087135	0
1.438	2.087074	0
1.442	2.087013	0
1.446	2.086953	0
1.450	2.086893	0
1.454	2.086834	0
1.458	2.086776	0
1.462	2.086717	0
1.466	2.086660	0
1.470	2.086603	0
1.474	2.086546	0
1.478	2.086490	0
1.482	2.086434	0
1.486	2.086379	0
1.490	2.086324	0
1.494	2.086269	0
1.498	2.086215	0
1.502	2.086162	0
1.506	2.086109	0
1.510	2.086056	0
1.514	2.086004	0
1.518	2.085952	0
1.522	2.085901	0
1.526	2.085850	0
1.530	2.085799	0
1.534	2.085749	0
1.538	2.085699	0
1.542	2.085650	0
1.546	2.085601	0
1.550	2.085552	0
1.554	2.085504	0
1.558	2.085456	0
1.562	2.085409	0
1.566	2.085362	0
1.570	2.085315	0
1.574	2.085268	0
1.578	2.085222	0
1.582	2.085177	0
1.586	2.085131	0
1.590	2.085087	0
1.594	2.085042	0
1.598	2.084998	0
1.602	2.084954	0
1.606	2.084910	0
1.610	2.084867	0
1.614	2.084824	0
1.618	2.084781	0
1.622	2.084739	0
1.626	2.084697	0
1.630	2.084655	0
1.634	2.084614	0
1.638	2.084573	0
1.642	2.084532	0
1.646	2.084492	0
1.650	2.084451	0
1.654	2.084412	0
1.658	2.084372	0
1.662	2.084333	0
1.666	2.084294	0
1.670	2.084255	0
1.674	2.084217	0
1.678	2.084178	0
1.682	2.084140	0
1.686	2.084103	0
1.690	2.084066	0
1.694	2.084028	0
1.698	2.083992	0
1.702	2.083955	0
1.706	2.083919	0
1.710	2.083883	0
1.714	2.083847	0
1.718	2.083812	0
1.722	2.083776	0
1.726	2.083741	0
1.730	2.083707	0
1.734	2.083672	0
1.738	2.083638	0
1.742	2.083604	0
1.746	2.083570	0
1.750	2.083536	0
1.754	2.083503	0
1.758	2.083470	0
1.762	2.083437	0
1.766	2.083404	0
1.770	2.083372	0
1.774	2.083340	0
1.778	2.083308	0
1.782	2.083276	0
1.786	2.083244	0
1.790	2.083213	0
1.794	2.083182	0
1.798	2.083151	0
