Material: main / Ta2O5 / Rodriguez-de Marcos
Optical constants. L. V. Rodríguez-de Marcos, J. I. Larruquert, J. A. Méndez, J. A. Aznárez. Self-consistent optical constants of SiO2 and Ta2O5 films, Opt. Mater. Express 6, 3622-3637 (2016) (Numerical data kindly provided by Juan Larruquert)
Comments: Oxide films were deposited by reactive electron-beam evaporation onto various sorts of substrates at 300 °C
Specs: {"n_absolute": true, "wavelength_vacuum": true, "deposition_temperature": "300 °C"}
wavelength (um)	n	k
2.94938E-02	0.887314	0.187000
3.00495E-02	0.883526	0.188000
3.06157E-02	0.877279	0.191000
3.11925E-02	0.870667	0.199000
3.17802E-02	0.865582	0.209000
3.23790E-02	0.862174	0.220000
3.29890E-02	0.860291	0.231000
3.36106E-02	0.859091	0.241000
3.42439E-02	0.858507	0.252000
3.48891E-02	0.858497	0.262000
3.55464E-02	0.859036	0.273000
3.62162E-02	0.860235	0.283000
3.68985E-02	0.861649	0.293000
3.75937E-02	0.863507	0.303000
3.83021E-02	0.865407	0.312000
3.90237E-02	0.867515	0.322000
3.97590E-02	0.870103	0.331000
4.05081E-02	0.872251	0.339000
4.12713E-02	0.874093	0.348000
4.20489E-02	0.876263	0.357000
4.28412E-02	0.878275	0.365000
4.36483E-02	0.879640	0.373000
4.44707E-02	0.880129	0.381000
4.53086E-02	0.880275	0.391000
4.61623E-02	0.881184	0.402000
4.70321E-02	0.882563	0.412000
4.79182E-02	0.883251	0.421000
4.88210E-02	0.881493	0.429000
4.97409E-02	0.878349	0.443000
5.06781E-02	0.877114	0.461000
5.16329E-02	0.878412	0.480000
5.26057E-02	0.882654	0.501001
5.35969E-02	0.891949	0.522999
5.46067E-02	0.903256	0.535000
5.56356E-02	0.909900	0.542000
5.66838E-02	0.914526	0.558000
5.77518E-02	0.921290	0.574000
5.88400E-02	0.929812	0.591000
5.99486E-02	0.941993	0.609000
6.10781E-02	0.954689	0.617000
6.22289E-02	0.962760	0.623000
6.34014E-02	0.967331	0.633000
6.45959E-02	0.972348	0.649001
6.58130E-02	0.979227	0.665000
6.70530E-02	0.988735	0.684001
6.83163E-02	0.999240	0.697000
6.96035E-02	1.008544	0.712000
7.09149E-02	1.018160	0.728000
7.22511E-02	1.026595	0.743000
7.36124E-02	1.038517	0.770001
7.49993E-02	1.058245	0.792000
7.64124E-02	1.078446	0.802000
7.78521E-02	1.094830	0.811000
7.93189E-02	1.107957	0.819000
8.08134E-02	1.113578	0.824000
8.23360E-02	1.118704	0.853000
8.38874E-02	1.135462	0.886998
8.54679E-02	1.159903	0.910999
8.70782E-02	1.182587	0.926001
8.87189E-02	1.209856	0.956000
9.03905E-02	1.222391	0.943001
9.20935E-02	1.255146	1.040000
9.38287E-02	1.323130	1.040000
9.55966E-02	1.355658	1.000001
9.73977E-02	1.381876	1.039997
9.92328E-02	1.423695	1.040000
1.01102E-01	1.462605	1.050000
1.03007E-01	1.516706	1.069999
1.04948E-01	1.572582	1.040002
1.06926E-01	1.611368	1.010000
1.08940E-01	1.640192	0.982642
1.10993E-01	1.666027	0.964110
1.13084E-01	1.689775	0.938300
1.15215E-01	1.705699	0.911129
1.17385E-01	1.719929	0.898454
1.19597E-01	1.737640	0.880978
1.21850E-01	1.741873	0.842602
1.24146E-01	1.745046	0.853835
1.26485E-01	1.760641	0.844727
1.28869E-01	1.776910	0.836531
1.31297E-01	1.791499	0.817832
1.33770E-01	1.801940	0.801912
1.36291E-01	1.808534	0.782211
1.38859E-01	1.809249	0.765015
1.41475E-01	1.806750	0.755215
1.44141E-01	1.803693	0.750299
1.46856E-01	1.802791	0.752538
1.49623E-01	1.803949	0.753066
1.52442E-01	1.807081	0.758887
1.55315E-01	1.813430	0.762572
1.58241E-01	1.816681	0.758419
1.61222E-01	1.815331	0.763733
1.64260E-01	1.819607	0.783252
1.67355E-01	1.827870	0.790552
1.70508E-01	1.833097	0.802448
1.73721E-01	1.842640	0.827663
1.76994E-01	1.859949	0.850703
1.80329E-01	1.886402	0.877517
1.83726E-01	1.907338	0.873986
1.87188E-01	1.927943	0.913957
1.90715E-01	1.971030	0.950735
1.94308E-01	2.018102	0.954682
1.97969E-01	2.065739	0.976125
2.01699E-01	2.124363	0.987470
2.05499E-01	2.187821	0.985850
2.09371E-01	2.252461	0.974230
2.13316E-01	2.317765	0.954646
2.17335E-01	2.383453	0.925142
2.21430E-01	2.448583	0.884836
2.25602E-01	2.510247	0.828696
2.29853E-01	2.559918	0.752588
2.34183E-01	2.592864	0.672583
2.38596E-01	2.610037	0.591242
2.43091E-01	2.614369	0.518054
2.47671E-01	2.611533	0.452457
2.52338E-01	2.601842	0.387131
2.57092E-01	2.583646	0.326981
2.61936E-01	2.558500	0.274948
2.66871E-01	2.529054	0.232703
2.71899E-01	2.498146	0.200034
2.77022E-01	2.468192	0.175849
2.82242E-01	2.440879	0.158014
2.87560E-01	2.416946	0.144266
2.92978E-01	2.396030	0.132192
2.98498E-01	2.377475	0.121522
3.04122E-01	2.361544	0.112057
3.09852E-01	2.344878	0.097244
3.15690E-01	2.327401	0.090259
3.21638E-01	2.313067	0.084890
3.27698E-01	2.299073	0.075455
3.33872E-01	2.284646	0.070850
3.40163E-01	2.272668	0.068438
3.46572E-01	2.262346	0.063965
3.53102E-01	2.252380	0.059838
3.59755E-01	2.242995	0.056106
3.66533E-01	2.234227	0.052575
3.73439E-01	2.225945	0.049079
3.80475E-01	2.218046	0.045771
3.87643E-01	2.210459	0.042570
3.94947E-01	2.203195	0.039735
4.02388E-01	2.196309	0.037077
4.09970E-01	2.189773	0.034591
4.17694E-01	2.183516	0.032150
4.25564E-01	2.177509	0.029938
4.33582E-01	2.171784	0.027862
4.41752E-01	2.166291	0.025847
4.50075E-01	2.160999	0.023992
4.58555E-01	2.155916	0.022260
4.67195E-01	2.151042	0.020672
4.75997E-01	2.146366	0.019160
4.84965E-01	2.141875	0.017776
4.94103E-01	2.137538	0.016424
5.03412E-01	2.133353	0.015261
5.12897E-01	2.129353	0.014182
5.22561E-01	2.125520	0.013182
5.32407E-01	2.121802	0.012206
5.42438E-01	2.118237	0.011465
5.52658E-01	2.114865	0.010744
5.63071E-01	2.111633	0.010065
5.73680E-01	2.108538	0.009478
5.84489E-01	2.105606	0.008958
5.95501E-01	2.102780	0.008386
6.06721E-01	2.100052	0.007976
6.18153E-01	2.097506	0.007660
6.29799E-01	2.095102	0.007266
6.41666E-01	2.092795	0.006922
6.53756E-01	2.090601	0.006599
6.66073E-01	2.088483	0.006256
6.78623E-01	2.086529	0.006120
6.91409E-01	2.084691	0.005687
7.04436E-01	2.082859	0.005339
7.17708E-01	2.081029	0.004917
7.31231E-01	2.079270	0.004765
7.45008E-01	2.077617	0.004474
7.59045E-01	2.076014	0.004288
7.73347E-01	2.074499	0.004105
7.87917E-01	2.073057	0.003927
8.02763E-01	2.071678	0.003752
8.17888E-01	2.070356	0.003580
8.33298E-01	2.069088	0.003417
8.48998E-01	2.067873	0.003264
8.64995E-01	2.066710	0.003113
8.81292E-01	2.065595	0.002965
8.97897E-01	2.064523	0.002819
9.14814E-01	2.063492	0.002676
9.32051E-01	2.062500	0.002535
9.49612E-01	2.061544	0.002397
9.67504E-01	2.060621	0.002260
9.85733E-01	2.059728	0.002126
1.00431E+00	2.058858	0.001993
1.02323E+00	2.058014	0.001883
1.04251E+00	2.057206	0.001791
1.06215E+00	2.056435	0.001702
1.08216E+00	2.055695	0.001614
1.10255E+00	2.054984	0.001527
1.12332E+00	2.054300	0.001442
1.14449E+00	2.053640	0.001359
1.16605E+00	2.053003	0.001277
1.18802E+00	2.052387	0.001197
1.21041E+00	2.051790	0.001118
1.23321E+00	2.051209	0.001040
1.25645E+00	2.050644	0.000974
1.28012E+00	2.050097	0.000912
1.30424E+00	2.049564	0.000852
1.32881E+00	2.049043	0.000807
1.35385E+00	2.048546	0.000790
1.37936E+00	2.048078	0.000773
1.40535E+00	2.047633	0.000757
1.43182E+00	2.047209	0.000741
1.45880E+00	2.046804	0.000725
1.48629E+00	2.046415	0.000710
1.51429E+00	2.046043	0.000694
