Material: main / Be / Rakic-LD
Optical constants. A. D. Rakić, A. B. Djurišic, J. M. Elazar, and M. L. Majewski. Optical properties of metallic films for vertical-cavity optoelectronic devices, Appl. Opt. 37, 5271-5283 (1998)[Calculation script (Python)]
Comments: Fit of experimental data from several sources to Lorentz-Drude (LD) model
Specs: {"n_absolute": true, "wavelength_vacuum": true}
wavelength (um)	n	k
2.4797e-01	1.7010e+00	3.2089e+00
2.5211e-01	1.7834e+00	3.2277e+00
2.5633e-01	1.8665e+00	3.2387e+00
2.6061e-01	1.9486e+00	3.2417e+00
2.6497e-01	2.0279e+00	3.2369e+00
2.6940e-01	2.1026e+00	3.2249e+00
2.7391e-01	2.1712e+00	3.2071e+00
2.7849e-01	2.2327e+00	3.1851e+00
2.8314e-01	2.2865e+00	3.1609e+00
2.8788e-01	2.3330e+00	3.1363e+00
2.9269e-01	2.3727e+00	3.1129e+00
2.9758e-01	2.4066e+00	3.0920e+00
3.0256e-01	2.4359e+00	3.0744e+00
3.0762e-01	2.4618e+00	3.0605e+00
3.1276e-01	2.4854e+00	3.0503e+00
3.1799e-01	2.5078e+00	3.0437e+00
3.2331e-01	2.5296e+00	3.0405e+00
3.2871e-01	2.5515e+00	3.0400e+00
3.3421e-01	2.5738e+00	3.0420e+00
3.3979e-01	2.5970e+00	3.0459e+00
3.4548e-01	2.6210e+00	3.0513e+00
3.5125e-01	2.6461e+00	3.0578e+00
3.5712e-01	2.6722e+00	3.0650e+00
3.6309e-01	2.6992e+00	3.0726e+00
3.6917e-01	2.7270e+00	3.0804e+00
3.7534e-01	2.7557e+00	3.0882e+00
3.8161e-01	2.7849e+00	3.0958e+00
3.8799e-01	2.8146e+00	3.1030e+00
3.9448e-01	2.8446e+00	3.1098e+00
4.0108e-01	2.8749e+00	3.1161e+00
4.0778e-01	2.9052e+00	3.1218e+00
4.1460e-01	2.9354e+00	3.1269e+00
4.2153e-01	2.9654e+00	3.1314e+00
4.2858e-01	2.9951e+00	3.1352e+00
4.3574e-01	3.0244e+00	3.1385e+00
4.4303e-01	3.0532e+00	3.1413e+00
4.5044e-01	3.0813e+00	3.1435e+00
4.5797e-01	3.1087e+00	3.1453e+00
4.6562e-01	3.1353e+00	3.1466e+00
4.7341e-01	3.1610e+00	3.1476e+00
4.8132e-01	3.1858e+00	3.1483e+00
4.8937e-01	3.2096e+00	3.1487e+00
4.9755e-01	3.2324e+00	3.1490e+00
5.0587e-01	3.2541e+00	3.1493e+00
5.1433e-01	3.2747e+00	3.1495e+00
5.2293e-01	3.2942e+00	3.1497e+00
5.3167e-01	3.3125e+00	3.1502e+00
5.4056e-01	3.3296e+00	3.1508e+00
5.4960e-01	3.3455e+00	3.1517e+00
5.5879e-01	3.3603e+00	3.1529e+00
5.6813e-01	3.3738e+00	3.1546e+00
5.7763e-01	3.3862e+00	3.1568e+00
5.8729e-01	3.3973e+00	3.1595e+00
5.9710e-01	3.4073e+00	3.1629e+00
6.0709e-01	3.4161e+00	3.1669e+00
6.1724e-01	3.4238e+00	3.1717e+00
6.2756e-01	3.4303e+00	3.1773e+00
6.3805e-01	3.4357e+00	3.1837e+00
6.4872e-01	3.4400e+00	3.1911e+00
6.5956e-01	3.4432e+00	3.1994e+00
6.7059e-01	3.4453e+00	3.2087e+00
6.8180e-01	3.4464e+00	3.2191e+00
6.9320e-01	3.4466e+00	3.2306e+00
7.0479e-01	3.4457e+00	3.2433e+00
7.1657e-01	3.4439e+00	3.2572e+00
7.2856e-01	3.4411e+00	3.2723e+00
7.4074e-01	3.4374e+00	3.2886e+00
7.5312e-01	3.4329e+00	3.3063e+00
7.6571e-01	3.4275e+00	3.3254e+00
7.7851e-01	3.4213e+00	3.3458e+00
7.9153e-01	3.4143e+00	3.3677e+00
8.0476e-01	3.4065e+00	3.3910e+00
8.1822e-01	3.3980e+00	3.4158e+00
8.3190e-01	3.3888e+00	3.4421e+00
8.4581e-01	3.3789e+00	3.4700e+00
8.5995e-01	3.3683e+00	3.4995e+00
8.7433e-01	3.3571e+00	3.5306e+00
8.8895e-01	3.3454e+00	3.5633e+00
9.0381e-01	3.3330e+00	3.5977e+00
9.1892e-01	3.3201e+00	3.6338e+00
9.3428e-01	3.3068e+00	3.6716e+00
9.4990e-01	3.2929e+00	3.7111e+00
9.6578e-01	3.2786e+00	3.7524e+00
9.8193e-01	3.2638e+00	3.7955e+00
9.9835e-01	3.2487e+00	3.8405e+00
1.0150e+00	3.2332e+00	3.8872e+00
1.0320e+00	3.2174e+00	3.9359e+00
1.0493e+00	3.2012e+00	3.9864e+00
1.0668e+00	3.1848e+00	4.0388e+00
1.0846e+00	3.1681e+00	4.0931e+00
1.1028e+00	3.1512e+00	4.1494e+00
1.1212e+00	3.1341e+00	4.2076e+00
1.1400e+00	3.1168e+00	4.2678e+00
1.1590e+00	3.0994e+00	4.3300e+00
1.1784e+00	3.0818e+00	4.3942e+00
1.1981e+00	3.0642e+00	4.4604e+00
1.2181e+00	3.0464e+00	4.5286e+00
1.2385e+00	3.0287e+00	4.5989e+00
1.2592e+00	3.0109e+00	4.6712e+00
1.2803e+00	2.9930e+00	4.7457e+00
1.3017e+00	2.9753e+00	4.8222e+00
1.3234e+00	2.9575e+00	4.9008e+00
1.3456e+00	2.9398e+00	4.9815e+00
1.3680e+00	2.9222e+00	5.0644e+00
1.3909e+00	2.9046e+00	5.1494e+00
1.4142e+00	2.8872e+00	5.2366e+00
1.4378e+00	2.8699e+00	5.3259e+00
1.4619e+00	2.8527e+00	5.4175e+00
1.4863e+00	2.8357e+00	5.5112e+00
1.5112e+00	2.8188e+00	5.6071e+00
1.5364e+00	2.8021e+00	5.7053e+00
1.5621e+00	2.7856e+00	5.8057e+00
1.5882e+00	2.7693e+00	5.9084e+00
1.6148e+00	2.7533e+00	6.0134e+00
1.6418e+00	2.7374e+00	6.1206e+00
1.6692e+00	2.7217e+00	6.2302e+00
1.6971e+00	2.7063e+00	6.3422e+00
1.7255e+00	2.6912e+00	6.4565e+00
1.7544e+00	2.6763e+00	6.5732e+00
1.7837e+00	2.6616e+00	6.6923e+00
1.8135e+00	2.6472e+00	6.8138e+00
1.8438e+00	2.6331e+00	6.9378e+00
1.8747e+00	2.6193e+00	7.0643e+00
1.9060e+00	2.6057e+00	7.1933e+00
1.9379e+00	2.5925e+00	7.3249e+00
1.9703e+00	2.5795e+00	7.4591e+00
2.0032e+00	2.5669e+00	7.5958e+00
2.0367e+00	2.5546e+00	7.7353e+00
2.0707e+00	2.5426e+00	7.8773e+00
2.1054e+00	2.5310e+00	8.0222e+00
2.1406e+00	2.5197e+00	8.1697e+00
2.1764e+00	2.5087e+00	8.3201e+00
2.2127e+00	2.4982e+00	8.4732e+00
2.2497e+00	2.4880e+00	8.6293e+00
2.2874e+00	2.4781e+00	8.7882e+00
2.3256e+00	2.4687e+00	8.9501e+00
2.3645e+00	2.4597e+00	9.1150e+00
2.4040e+00	2.4511e+00	9.2829e+00
2.4442e+00	2.4430e+00	9.4539e+00
2.4851e+00	2.4353e+00	9.6280e+00
2.5266e+00	2.4280e+00	9.8053e+00
2.5689e+00	2.4213e+00	9.9858e+00
2.6118e+00	2.4150e+00	1.0170e+01
2.6555e+00	2.4092e+00	1.0357e+01
2.6999e+00	2.4040e+00	1.0547e+01
2.7450e+00	2.3993e+00	1.0741e+01
2.7909e+00	2.3952e+00	1.0938e+01
2.8376e+00	2.3916e+00	1.1139e+01
2.8850e+00	2.3887e+00	1.1343e+01
2.9332e+00	2.3864e+00	1.1551e+01
2.9823e+00	2.3847e+00	1.1763e+01
3.0321e+00	2.3837e+00	1.1978e+01
3.0828e+00	2.3834e+00	1.2197e+01
3.1344e+00	2.3838e+00	1.2420e+01
3.1868e+00	2.3850e+00	1.2647e+01
3.2401e+00	2.3869e+00	1.2878e+01
3.2942e+00	2.3897e+00	1.3113e+01
3.3493e+00	2.3932e+00	1.3352e+01
3.4053e+00	2.3976e+00	1.3595e+01
3.4623e+00	2.4029e+00	1.3842e+01
3.5201e+00	2.4091e+00	1.4093e+01
3.5790e+00	2.4162e+00	1.4349e+01
3.6388e+00	2.4243e+00	1.4609e+01
3.6997e+00	2.4335e+00	1.4873e+01
3.7615e+00	2.4436e+00	1.5142e+01
3.8244e+00	2.4549e+00	1.5415e+01
3.8884e+00	2.4672e+00	1.5693e+01
3.9534e+00	2.4807e+00	1.5976e+01
4.0195e+00	2.4954e+00	1.6263e+01
4.0867e+00	2.5113e+00	1.6556e+01
4.1550e+00	2.5284e+00	1.6853e+01
4.2245e+00	2.5469e+00	1.7155e+01
4.2951e+00	2.5667e+00	1.7462e+01
4.3669e+00	2.5879e+00	1.7774e+01
4.4399e+00	2.6105e+00	1.8091e+01
4.5141e+00	2.6345e+00	1.8413e+01
4.5896e+00	2.6601e+00	1.8741e+01
4.6663e+00	2.6873e+00	1.9074e+01
4.7444e+00	2.7160e+00	1.9412e+01
4.8237e+00	2.7464e+00	1.9756e+01
4.9043e+00	2.7786e+00	2.0105e+01
4.9863e+00	2.8124e+00	2.0460e+01
5.0697e+00	2.8481e+00	2.0821e+01
5.1545e+00	2.8856e+00	2.1187e+01
5.2406e+00	2.9251e+00	2.1560e+01
5.3283e+00	2.9665e+00	2.1938e+01
5.4173e+00	3.0100e+00	2.2322e+01
5.5079e+00	3.0555e+00	2.2712e+01
5.6000e+00	3.1032e+00	2.3109e+01
5.6936e+00	3.1531e+00	2.3511e+01
5.7888e+00	3.2052e+00	2.3920e+01
5.8856e+00	3.2597e+00	2.4336e+01
5.9840e+00	3.3166e+00	2.4757e+01
6.0841e+00	3.3760e+00	2.5186e+01
6.1858e+00	3.4379e+00	2.5621e+01
6.2892e+00	3.5025e+00	2.6062e+01
6.3944e+00	3.5697e+00	2.6511e+01
6.5013e+00	3.6396e+00	2.6966e+01
6.6100e+00	3.7125e+00	2.7429e+01
6.7205e+00	3.7882e+00	2.7898e+01
6.8328e+00	3.8669e+00	2.8375e+01
6.9471e+00	3.9488e+00	2.8858e+01
7.0632e+00	4.0337e+00	2.9349e+01
7.1813e+00	4.1220e+00	2.9848e+01
7.3014e+00	4.2136e+00	3.0354e+01
7.4234e+00	4.3086e+00	3.0867e+01
7.5476e+00	4.4072e+00	3.1388e+01
7.6738e+00	4.5094e+00	3.1917e+01
7.8020e+00	4.6154e+00	3.2453e+01
7.9325e+00	4.7252e+00	3.2998e+01
8.0651e+00	4.8389e+00	3.3550e+01
8.2000e+00	4.9567e+00	3.4111e+01
8.3371e+00	5.0786e+00	3.4679e+01
8.4764e+00	5.2048e+00	3.5256e+01
8.6182e+00	5.3355e+00	3.5842e+01
8.7623e+00	5.4706e+00	3.6435e+01
8.9088e+00	5.6104e+00	3.7037e+01
9.0577e+00	5.7549e+00	3.7648e+01
9.2091e+00	5.9043e+00	3.8267e+01
9.3631e+00	6.0587e+00	3.8895e+01
9.5196e+00	6.2183e+00	3.9532e+01
9.6788e+00	6.3832e+00	4.0178e+01
9.8406e+00	6.5534e+00	4.0833e+01
1.0005e+01	6.7293e+00	4.1496e+01
1.0172e+01	6.9109e+00	4.2169e+01
1.0343e+01	7.0983e+00	4.2851e+01
1.0515e+01	7.2918e+00	4.3543e+01
1.0691e+01	7.4914e+00	4.4243e+01
1.0870e+01	7.6974e+00	4.4953e+01
1.1052e+01	7.9098e+00	4.5672e+01
1.1237e+01	8.1289e+00	4.6401e+01
1.1424e+01	8.3549e+00	4.7140e+01
1.1615e+01	8.5878e+00	4.7888e+01
1.1810e+01	8.8279e+00	4.8646e+01
1.2007e+01	9.0753e+00	4.9413e+01
1.2208e+01	9.3302e+00	5.0190e+01
1.2412e+01	9.5928e+00	5.0977e+01
1.2619e+01	9.8634e+00	5.1774e+01
1.2830e+01	1.0142e+01	5.2581e+01
1.3045e+01	1.0429e+01	5.3398e+01
1.3263e+01	1.0724e+01	5.4224e+01
1.3485e+01	1.1028e+01	5.5061e+01
1.3710e+01	1.1341e+01	5.5907e+01
1.3939e+01	1.1663e+01	5.6764e+01
1.4172e+01	1.1994e+01	5.7631e+01
1.4409e+01	1.2334e+01	5.8507e+01
1.4650e+01	1.2684e+01	5.9394e+01
1.4895e+01	1.3044e+01	6.0290e+01
1.5144e+01	1.3414e+01	6.1197e+01
1.5398e+01	1.3794e+01	6.2114e+01
1.5655e+01	1.4185e+01	6.3040e+01
1.5917e+01	1.4586e+01	6.3977e+01
1.6183e+01	1.4998e+01	6.4923e+01
1.6453e+01	1.5421e+01	6.5879e+01
1.6728e+01	1.5856e+01	6.6846e+01
1.7008e+01	1.6302e+01	6.7821e+01
1.7292e+01	1.6760e+01	6.8807e+01
1.7582e+01	1.7229e+01	6.9802e+01
1.7876e+01	1.7711e+01	7.0807e+01
1.8174e+01	1.8205e+01	7.1822e+01
1.8478e+01	1.8711e+01	7.2846e+01
1.8787e+01	1.9231e+01	7.3879e+01
1.9101e+01	1.9763e+01	7.4921e+01
1.9421e+01	2.0308e+01	7.5973e+01
1.9745e+01	2.0866e+01	7.7034e+01
2.0076e+01	2.1438e+01	7.8104e+01
2.0411e+01	2.2024e+01	7.9182e+01
2.0752e+01	2.2623e+01	8.0269e+01
2.1099e+01	2.3236e+01	8.1365e+01
2.1452e+01	2.3864e+01	8.2469e+01
2.1811e+01	2.4506e+01	8.3582e+01
2.2175e+01	2.5162e+01	8.4703e+01
2.2546e+01	2.5833e+01	8.5832e+01
2.2923e+01	2.6519e+01	8.6968e+01
2.3306e+01	2.7219e+01	8.8113e+01
2.3696e+01	2.7935e+01	8.9264e+01
2.4092e+01	2.8666e+01	9.0424e+01
2.4495e+01	2.9412e+01	9.1590e+01
2.4905e+01	3.0174e+01	9.2764e+01
2.5321e+01	3.0951e+01	9.3944e+01
2.5744e+01	3.1744e+01	9.5131e+01
2.6175e+01	3.2552e+01	9.6325e+01
2.6612e+01	3.3377e+01	9.7525e+01
2.7057e+01	3.4217e+01	9.8730e+01
2.7510e+01	3.5073e+01	9.9942e+01
2.7970e+01	3.5945e+01	1.0116e+02
2.8437e+01	3.6833e+01	1.0238e+02
2.8913e+01	3.7738e+01	1.0361e+02
2.9396e+01	3.8658e+01	1.0485e+02
2.9888e+01	3.9594e+01	1.0608e+02
3.0387e+01	4.0547e+01	1.0733e+02
3.0895e+01	4.1515e+01	1.0858e+02
3.1412e+01	4.2500e+01	1.0983e+02
3.1937e+01	4.3501e+01	1.1108e+02
3.2471e+01	4.4518e+01	1.1234e+02
3.3014e+01	4.5551e+01	1.1361e+02
3.3566e+01	4.6600e+01	1.1488e+02
3.4127e+01	4.7665e+01	1.1615e+02
3.4698e+01	4.8746e+01	1.1742e+02
3.5278e+01	4.9843e+01	1.1870e+02
3.5868e+01	5.0955e+01	1.1998e+02
3.6467e+01	5.2083e+01	1.2127e+02
3.7077e+01	5.3227e+01	1.2256e+02
3.7697e+01	5.4386e+01	1.2385e+02
3.8327e+01	5.5561e+01	1.2514e+02
3.8968e+01	5.6750e+01	1.2643e+02
3.9619e+01	5.7955e+01	1.2773e+02
4.0282e+01	5.9175e+01	1.2903e+02
4.0955e+01	6.0410e+01	1.3033e+02
4.1640e+01	6.1660e+01	1.3164e+02
4.2336e+01	6.2924e+01	1.3294e+02
4.3044e+01	6.4203e+01	1.3425e+02
4.3764e+01	6.5497e+01	1.3556e+02
4.4495e+01	6.6804e+01	1.3687e+02
4.5239e+01	6.8126e+01	1.3818e+02
4.5996e+01	6.9461e+01	1.3950e+02
4.6765e+01	7.0810e+01	1.4081e+02
4.7547e+01	7.2173e+01	1.4213e+02
4.8342e+01	7.3550e+01	1.4345e+02
4.9150e+01	7.4939e+01	1.4477e+02
4.9972e+01	7.6342e+01	1.4609e+02
5.0807e+01	7.7758e+01	1.4742e+02
5.1657e+01	7.9187e+01	1.4874e+02
5.2520e+01	8.0629e+01	1.5007e+02
5.3398e+01	8.2083e+01	1.5140e+02
5.4291e+01	8.3549e+01	1.5273e+02
5.5199e+01	8.5028e+01	1.5407e+02
5.6122e+01	8.6519e+01	1.5540e+02
5.7060e+01	8.8022e+01	1.5674e+02
5.8014e+01	8.9537e+01	1.5808e+02
5.8984e+01	9.1064e+01	1.5942e+02
5.9970e+01	9.2602e+01	1.6077e+02
6.0973e+01	9.4152e+01	1.6212e+02
6.1992e+01	9.5713e+01	1.6347e+02
