Material: semiconductor alloys / AlSb-GaSb / Ferrini-10
Optical constants. R. Ferrini, M. Patrini, and S. Franchi. Optical functions from 0.02 to 6 eV of AlxGa1−xSb/GaSb epitaxial layers, J. Appl Phys. 84, 4517-4524 (1998)
Comments: AlxGa1−xSb, x = 0.1. Thin film grown by molecular beam epitaxy on a GaSb substrate.
wavelength (um)	n	k
0.207	1.241	2.598
0.210	1.230	2.595
0.214	1.224	2.599
0.218	1.231	2.628
0.221	1.258	2.672
0.225	1.312	2.712
0.230	1.376	2.723
0.234	1.413	2.717
0.238	1.418	2.724
0.243	1.414	2.765
0.248	1.420	2.832
0.253	1.441	2.915
0.258	1.472	3.014
0.264	1.521	3.129
0.270	1.589	3.262
0.276	1.681	3.416
0.282	1.814	3.610
0.288	2.041	3.850
0.295	2.479	4.038
0.302	2.991	3.934
0.310	3.335	3.664
0.318	3.522	3.400
0.326	3.643	3.155
0.335	3.713	2.959
0.344	3.763	2.780
0.354	3.777	2.624
0.365	3.809	2.513
0.376	3.821	2.375
0.387	3.810	2.258
0.400	3.779	2.193
0.413	3.758	2.164
0.428	3.768	2.181
0.443	3.804	2.200
0.459	3.893	2.247
0.477	4.100	2.327
0.496	4.425	2.142
0.517	4.461	1.897
0.539	4.483	1.792
0.564	4.568	1.804
0.590	5.087	1.729
0.620	5.154	1.025
0.653	4.917	0.675
0.689	4.697	0.487
0.729	4.529	0.372
0.775	4.393	0.309
0.827	4.262	0.268
0.886	4.183	0.217
0.954	4.110	0.184
1.033	4.031	0.162
1.127	3.983	0.148
1.240	3.952	0.125
1.378	3.942	0.094
1.550	3.861	0.014
1.771	3.807	0.000
2.066	3.781	0.000
2.480	3.765	0.000
