Material: semiconductor alloys / AlSb-GaSb / Ferrini-50
Optical constants. R. Ferrini, M. Patrini, and S. Franchi. Optical functions from 0.02 to 6 eV of AlxGa1−xSb/GaSb epitaxial layers, J. Appl Phys. 84, 4517-4524 (1998)
Comments: AlxGa1−xSb, x = 0.5. Thin film grown by molecular beam epitaxy on a GaSb substrate.
wavelength (um)	n	k
0.207	1.246	2.305
0.210	1.273	2.343
0.214	1.301	2.375
0.218	1.324	2.410
0.221	1.352	2.458
0.225	1.402	2.504
0.230	1.467	2.530
0.234	1.516	2.527
0.238	1.526	2.520
0.243	1.515	2.544
0.248	1.502	2.595
0.253	1.492	2.672
0.258	1.496	2.777
0.264	1.513	2.904
0.270	1.551	3.057
0.276	1.624	3.240
0.282	1.740	3.453
0.288	1.932	3.724
0.295	2.337	3.991
0.302	2.863	4.024
0.310	3.327	3.801
0.318	3.606	3.530
0.326	3.784	3.271
0.335	3.887	3.023
0.344	3.953	2.820
0.354	4.042	2.656
0.365	4.074	2.449
0.376	4.047	2.298
0.387	4.012	2.200
0.400	3.993	2.162
0.413	4.030	2.149
0.428	4.105	2.146
0.443	4.302	2.147
0.459	4.491	1.943
0.477	4.552	1.716
0.496	4.483	1.605
0.517	4.632	1.702
0.539	5.031	1.426
0.564	5.112	0.970
0.590	4.989	0.525
0.620	4.720	0.265
0.653	4.475	0.155
0.689	4.289	0.098
0.729	4.176	0.067
0.775	4.063	0.033
0.827	3.970	0.017
0.886	3.895	0.004
0.954	3.778	0.000
1.033	3.667	0.000
1.127	3.610	0.000
1.240	3.575	0.000
1.378	3.551	0.000
1.550	3.535	0.000
1.771	3.523	0.000
2.066	3.514	0.000
2.480	3.508	0.000
