Material: main / Pr / Fernandez-Perea
Optical constants. M. Fernández-Perea, M. Vidal-Dasilva, J. A. Aznárez, J. I. Larruquert, J. A. Méndez, L. Poletto, D. Garoli, A. M. Malvezzi, A. Giglia and S. Nannarone. Transmittance and optical constants of Pr films in the 4-1600 eV spectral range, J. Appl. Phys. 103, 113515 (2008) (Numerical data kindly provided by Juan Larruquert)
Comments: Density: 6.773 g/cm3. Film deposited at room temperature.
Specs: {"n_absolute": true, "wavelength_vacuum": true}
wavelength (um)	n	k
0.000774901	0.99963036	0.000227
0.00078471	0.9996505	0.000224
0.00079477	0.99965214	0.000233
0.000805092	0.99963751	0.000246
0.000807189	0.99964543	0.000252
0.000809296	0.99965333	0.000252
0.000811415	0.99965718	0.000247
0.000813545	0.99965825	0.000244
0.000815685	0.99965668	0.000242
0.000817838	0.9996532	0.000241
0.000820001	0.99965028	0.000244
0.000822176	0.99964887	0.000248
0.000824363	0.99965127	0.000253
0.000826561	0.99965603	0.000254
0.000828771	0.99966102	0.000251
0.000830993	0.99965888	0.000251
0.000837731	0.9996563	0.000235
0.000849207	0.99964823	0.000237
0.000861001	0.9996323	0.00025
0.000873128	0.99962129	0.000253
0.000885601	0.99961296	0.000261
0.000898436	0.99960674	0.000272
0.000906317	0.99960554	0.000319
0.000908975	0.99962255	0.000275
0.000911648	0.99960147	0.000273
0.000914338	0.99959142	0.000285
0.000917043	0.99959425	0.000296
0.000919764	0.99959826	0.000306
0.000922501	0.99960877	0.000311
0.000925255	0.99962324	0.000301
0.000928025	0.99961745	0.00029
0.000930812	0.99960834	0.000284
0.000933616	0.99960096	0.000288
0.000936436	0.99959637	0.00029
0.000939274	0.99959285	0.000296
0.000942129	0.99959229	0.0003
0.000945001	0.99959216	0.000304
0.000947891	0.99959281	0.000306
0.000950799	0.99959248	0.000307
0.000953725	0.99959089	0.000307
0.000956668	0.99958935	0.000308
0.00095963	0.9995865	0.00031
0.00096261	0.99958419	0.000312
0.000965609	0.99958205	0.000315
0.000968626	0.99957986	0.000319
0.000971663	0.99957887	0.000323
0.000974718	0.99957899	0.000326
0.000977793	0.99957869	0.00033
0.000980888	0.99957854	0.000333
0.000984001	0.99957743	0.000335
0.000987135	0.99957534	0.000339
0.000990289	0.9995729	0.000349
0.000993463	0.99958607	0.000368
0.000996657	0.99961477	0.000357
0.000999872	0.99961359	0.000334
0.001003108	0.99960426	0.000325
0.001006365	0.99959725	0.000322
0.001009643	0.99959117	0.000319
0.001012943	0.99958247	0.000316
0.001016264	0.99957963	0.000316
0.001033202	0.99955249	0.000336
0.001050713	0.99954069	0.00035
0.001068829	0.99952818	0.000367
0.001087581	0.99951858	0.000384
0.001107002	0.99951096	0.000402
0.001127129	0.99950262	0.000418
0.001148002	0.99948858	0.000439
0.001169662	0.99948017	0.000468
0.001192156	0.99948117	0.000495
0.001215531	0.99948371	0.000527
0.001239842	0.99948099	0.000551
0.001265145	0.99948805	0.00059
0.001267732	0.99949524	0.000577
0.00127033	0.99948612	0.000566
0.001272938	0.99947256	0.00056
0.001275557	0.99945589	0.000558
0.001278187	0.99943647	0.000559
0.001280828	0.99941729	0.000562
0.00128348	0.99939286	0.000562
0.001286143	0.99935435	0.000558
0.001288817	0.99929201	0.000566
0.001291502	0.99921074	0.000595
0.001294198	0.99910938	0.000647
0.001296906	0.99896313	0.000735
0.001299625	0.99864692	0.000945
0.001302355	0.99831056	0.002068
0.001305097	1.0005132	0.002644
0.00130785	1.0005448	0.001683
0.001310615	1.001061	0.000752
0.001313392	1.0003908	0.000295
0.00131618	1.0000543	0.000258
0.001318981	0.99981047	0.000258
0.001321793	0.99956901	0.000286
0.001324617	0.99924935	0.00039
0.001327454	0.99865768	0.000694
0.001330302	0.99884223	0.002572
0.001333163	1.0013936	0.002325
0.001336037	1.0012513	0.000706
0.001338922	1.0008353	0.000402
0.00134182	1.0005416	0.000207
0.001344731	1.0003478	0.000176
0.001347654	1.0002287	0.000165
0.00135059	1.0001433	0.000159
0.001353539	1.0000775	0.000156
0.001356501	1.0000244	0.000154
0.001359476	0.99998013	0.000152
0.001362464	0.99994153	0.000152
0.001365465	0.99990822	0.000152
0.001368479	0.99987924	0.000153
0.001371506	0.99985314	0.000153
0.001374548	0.9998292	0.000154
0.001377602	0.99980776	0.000155
0.001389957	0.99973614	0.000158
0.001402536	0.99967893	0.00016
0.001415345	0.99963001	0.000163
0.001428389	0.9995872	0.000168
0.001441677	0.99954988	0.000174
0.001455213	0.9995169	0.000179
0.001469007	0.99948298	0.0001835
0.001483064	0.99945412	0.000189
0.001497394	0.9994244	0.000194
0.001512002	0.99939661	0.000201
0.001526899	0.99937012	0.000207
0.001542092	0.99934449	0.000212
0.00155759	0.99931769	0.000217
0.001573403	0.99929089	0.000222
0.001589541	0.99926411	0.000229
0.001606013	0.99923747	0.000236
0.00162283	0.9992118	0.000243
0.001640002	0.99918532	0.00025
0.001657543	0.99915794	0.000257
0.001675462	0.99913094	0.000265
0.001693773	0.99910361	0.000273
0.001712489	0.99907522	0.000282
0.001731623	0.99904693	0.000291
0.001751189	0.99902021	0.000301
0.001771203	0.99898925	0.0003095
0.001791679	0.99896081	0.000321
0.001812634	0.99893102	0.0003315
0.001834086	0.99889949	0.000342
0.001856051	0.99886894	0.000355
0.001878548	0.99883751	0.000367
0.001901598	0.9988062	0.000379
0.00192522	0.99877364	0.000391
0.001949437	0.99873815	0.000403
0.001974271	0.99870157	0.000417
0.001999745	0.9986677	0.000435
0.002025885	0.9986323	0.000447
0.002052718	0.99859281	0.000463
0.002080272	0.99855476	0.00048
0.002108575	0.99851712	0.000497
0.002137658	0.99847628	0.000514
0.002167556	0.99843265	0.000533
0.0021809	0.99841118	0.000542
0.0021886	0.99840473	0.000549
0.002196354	0.99839398	0.000552
0.002204163	0.99838358	0.000557
0.002212028	0.99837338	0.000563
0.00221995	0.99836376	0.000567
0.002227928	0.99835299	0.000571
0.002235964	0.99834142	0.000575
0.002244058	0.99832777	0.00058
0.00225221	0.998316	0.000588
0.002260423	0.99830679	0.000596
0.002268695	0.99829747	0.0006
0.002277028	0.99828591	0.000605
0.002285423	0.99827729	0.000614
0.00229388	0.99826802	0.000607
0.002302399	0.99822861	0.000622
0.002310982	0.99824244	0.000681
0.002319629	0.99825726	0.000646
0.002328342	0.99827629	0.000667
0.002337119	0.99826137	0.000657
0.002345964	0.99825515	0.000606
0.002354875	0.99821827	0.000602
0.002363855	0.99819125	0.00061
0.002372903	0.9981748	0.000616
0.002382021	0.99815776	0.000619
0.002412144	0.99809855	0.000635
0.00245028	0.99803222	0.000664
0.002489642	0.99796989	0.0006865
0.00253029	0.99790427	0.0007155
0.002572286	0.99783301	0.0007355
0.0026157	0.99776888	0.00077
0.002660605	0.99767058	0.000768
0.002707078	0.99762327	0.000854
0.002755204	0.99754648	0.000851
0.002805072	0.99746141	0.00088
0.002856779	0.99737523	0.000914
0.002910427	0.99728266	0.000944
0.002966129	0.997185	0.000982
0.003024005	0.99708371	0.00102
0.003084184	0.9969698	0.001015
0.003146807	0.99687499	0.0011025
0.003212026	0.99675888	0.0011395
0.003280005	0.99663539	0.001182
0.003350924	0.99650808	0.00122
0.003424978	0.99636479	0.001259
0.003502378	0.99621158	0.001291
0.003583358	0.99605712	0.001346
0.003668171	0.99588101	0.001386
0.003757097	0.99569359	0.001434
0.003850441	0.99549155	0.001479
0.003892753	0.99540269	0.0015074
0.003917352	0.99535357	0.0015192
0.003942264	0.99530336	0.0015288
0.003967494	0.99525154	0.0015364
0.00399305	0.99519761	0.0015424
0.004018936	0.99514125	0.001547
0.004045161	0.99508237	0.0015505
0.00407173	0.99502046	0.0015532
0.004098651	0.99495548	0.0015554
0.00412593	0.99488732	0.0015574
0.004153574	0.99481604	0.0015594
0.004181591	0.99474141	0.0015617
0.004209989	0.99466356	0.0015647
0.004238776	0.99458257	0.0015686
0.004267958	0.99449854	0.0015737
0.004297545	0.99441165	0.0015802
0.004327546	0.99432221	0.0015885
0.004357968	0.99423068	0.0015989
0.004388821	0.994138	0.0016116
0.004420114	0.9940477	0.00163
0.004451856	0.99395909	0.001642
0.004484057	0.99386232	0.001641
0.004516728	0.99376561	0.001645
0.004549878	0.99365614	0.001655
0.004583519	0.99354526	0.001679
0.004617661	0.99344133	0.001685
0.004652315	0.99333076	0.001686
0.004687493	0.99321651	0.001695
0.004723207	0.99309754	0.001701
0.00475947	0.99297252	0.001703
0.004796294	0.99284216	0.001711
0.004833692	0.99270139	0.001726
0.004871677	0.99256661	0.001737
0.004910265	0.99242526	0.001741
0.004949469	0.99227155	0.001749
0.004989303	0.99211525	0.001761
0.005029784	0.99196256	0.001784
0.005070928	0.99180236	0.001797
0.00511275	0.99164743	0.001795
0.005155268	0.99146183	0.001785
0.005198498	0.9912603	0.001781
0.00524246	0.99105151	0.001798
0.005287172	0.99083302	0.001821
0.005332653	0.99060439	0.001842
0.005378924	0.99037291	0.001891
0.005426004	0.99016994	0.001957
0.005473916	0.99001489	0.001982
0.005522681	0.98979765	0.001918
0.005572323	0.98950524	0.00189
0.005622866	0.9891934	0.001898
0.005674334	0.98889083	0.001913
0.005726752	0.98855745	0.001913
0.005780149	0.98819821	0.001939
0.00583455	0.98782286	0.001987
0.005889985	0.98743554	0.002041
0.005946484	0.98703338	0.002108
0.006004077	0.98661202	0.002184
0.006062796	0.98616472	0.002268
0.006122676	0.98568803	0.002363
0.00618375	0.98513137	0.002474
0.006246055	0.98469151	0.0027115
0.006309628	0.9841921	0.0028515
0.006374508	0.98364042	0.0030175
0.006440737	0.98305865	0.003212
0.006508356	0.98241163	0.0034265
0.00657741	0.98180337	0.003818
0.006647946	0.98119679	0.004101
0.00672001	0.98054486	0.004429
0.006793654	0.97986913	0.004781
0.00686893	0.97916386	0.005177
0.006945893	0.97839423	0.005594
0.0070246	0.97761013	0.0060715
0.007105111	0.97678203	0.0065855
0.007187489	0.97588739	0.007153
0.0072718	0.97492636	0.0078075
0.007358112	0.97390619	0.00856
0.007446498	0.97283793	0.00944
0.007537033	0.97171699	0.0104425
0.007629796	0.97058323	0.0116215
0.007724871	0.96947187	0.0128935
0.007822346	0.96817776	0.014392
0.007922312	0.96692846	0.016155
0.008024867	0.96572059	0.018206
0.008130111	0.96462356	0.020548
0.008238152	0.96382771	0.023184
0.008349104	0.96272827	0.025787
0.008463084	0.96184096	0.028893
0.008580221	0.96085551	0.032331
0.008700645	0.95963158	0.036424
0.008824497	0.95792416	0.041715
0.008951927	0.95227049	0.048967
0.009083091	0.96230703	0.068087
0.009218155	0.97934427	0.070174
0.009357297	0.9884431	0.077952
0.009500704	1.0049705	0.07683
0.009648575	1.0142241	0.064404
0.009801122	1.0148131	0.062454
0.009958569	1.033799	0.068166
0.010121158	1.0495607	0.036764
0.010289144	1.0350537	0.016685
0.010462801	1.0243663	0.014181
0.010560834	1.0218854	0.0132335
0.010633292	1.0198268	0.0110637
0.010706752	1.0177464	0.0093752
0.010781234	1.0140276	0.0098225
0.010856759	1.0135363	0.0081149
0.01093335	1.0119852	0.0094732
0.011011029	1.007469	0.0081219
0.01108982	1.0099213	0.0091302
0.011169747	1.0074465	0.0091608
0.011250834	1.0081114	0.0069692
0.011333107	1.0066557	0.0085612
0.011416592	1.0048385	0.0058019
0.011501316	1.0030859	0.0057318
0.011587307	1.0017394	0.0057774
0.011674594	1.0003694	0.0057631
0.011763206	0.99911704	0.0058431
0.011921556	0.99719937	0.005919
0.012155312	0.99459037	0.006314
0.012398419	0.99241864	0.0065375
0.012651448	0.9901496	0.0067065
0.01291502	0.9880069	0.007038
0.013189807	0.9859094	0.007366
0.013476542	0.98380747	0.0077465
0.013776021	0.9816965	0.0081895
0.014089112	0.97952693	0.008637
0.014416766	0.97733805	0.00917
0.014760022	0.9750883	0.009724
0.015120023	0.97276151	0.010343
0.015498023	0.97033273	0.011003
0.015895409	0.96782431	0.011715
0.016313709	0.9651189	0.012407
0.01675462	0.96225596	0.013162
0.017220026	0.95909586	0.0139875
0.017712027	0.95549132	0.014942
0.018232969	0.95207263	0.0163565
0.018785483	0.94823396	0.0177315
0.019372529	0.94415692	0.018348
0.01999745	0.9390316	0.019797
0.020664031	0.93344888	0.02148
0.021376584	0.92718028	0.02352
0.022140033	0.92020386	0.026083
0.022960035	0.91257342	0.029194
0.023843113	0.90401813	0.032787
0.025047311	0.89041124	0.036848
0.02556375	0.88475426	0.041421
0.026101934	0.87933117	0.044204
0.026663266	0.87241294	0.046941
0.027249272	0.86434432	0.051078
0.027861615	0.85713527	0.056787
0.028502112	0.8499837	0.061654
0.02917275	0.84124778	0.06664
0.029875708	0.83209605	0.07262
0.03061338	0.82214121	0.079481
0.031190991	0.81303418	0.0846525
0.031588328	0.80618835	0.089013
0.031995919	0.79907405	0.0937175
0.032414167	0.79154864	0.098824
0.032843493	0.78331937	0.1044225
0.033284346	0.77404334	0.111344
0.033737194	0.76337283	0.1199583
0.034202534	0.75377265	0.1297137
0.034680892	0.74397257	0.1423079
0.035172819	0.73676543	0.1567242
0.035678903	0.7286867	0.1678817
0.036199763	0.71912058	0.1849726
0.036736056	0.71110876	0.2040686
0.037288477	0.70528639	0.2258291
0.037857767	0.7036435	0.247719
0.038444709	0.70131901	0.269669
0.039050138	0.700735	0.29445
0.03967494	0.70298316	0.320931
0.040320061	0.70920342	0.349518
0.040986508	0.72070533	0.378603
0.041675357	0.73743503	0.406109
0.042387756	0.75971465	0.430355
0.043124935	0.78509095	0.450237
0.043888208	0.81338354	0.466077
0.044678986	0.84240894	0.474491
0.045498784	0.86901541	0.478294
0.046349229	0.89466894	0.47762
0.047232071	0.91698824	0.476004
0.048149199	0.93922931	0.471573
0.049102648	0.95984759	0.464024
0.050094621	0.97756121	0.453684
0.0511275	0.99205193	0.439521
0.052203868	1.000353	0.42408
0.053326532	1.0038008	0.408502
0.077801322	0.74420055	0.3581
0.098500212	0.55801662	0.883132
0.118053948	0.79752611	1.1908833
0.130509671	0.90043339	1.3457882
0.14586375	1.0810172	1.4908263
0.16531225	1.2839319	1.5768366
0.184559786	1.4095227	1.6365167
0.28696722	1.8721044	1.8375833
