Material: main / Cr / Rakic-LD
Optical constants. A. D. Rakić, A. B. Djurišic, J. M. Elazar, and M. L. Majewski. Optical properties of metallic films for vertical-cavity optoelectronic devices, Appl. Opt. 37, 5271-5283 (1998)[Calculation script (Python)]
Comments: Fit of experimental data from several sources to Lorentz-Drude (LD) model
Specs: {"n_absolute": true, "wavelength_vacuum": true}
wavelength (um)	n	k
2.4797e-01	8.5637e-01	2.0847e+00
2.5211e-01	8.7067e-01	2.1388e+00
2.5633e-01	8.8634e-01	2.1925e+00
2.6061e-01	9.0332e-01	2.2460e+00
2.6497e-01	9.2157e-01	2.2993e+00
2.6940e-01	9.4106e-01	2.3523e+00
2.7391e-01	9.6177e-01	2.4052e+00
2.7849e-01	9.8368e-01	2.4579e+00
2.8314e-01	1.0068e+00	2.5104e+00
2.8788e-01	1.0311e+00	2.5628e+00
2.9269e-01	1.0565e+00	2.6151e+00
2.9758e-01	1.0831e+00	2.6673e+00
3.0256e-01	1.1109e+00	2.7193e+00
3.0762e-01	1.1399e+00	2.7711e+00
3.1276e-01	1.1701e+00	2.8229e+00
3.1799e-01	1.2015e+00	2.8744e+00
3.2331e-01	1.2341e+00	2.9258e+00
3.2871e-01	1.2679e+00	2.9770e+00
3.3421e-01	1.3029e+00	3.0280e+00
3.3979e-01	1.3392e+00	3.0788e+00
3.4548e-01	1.3767e+00	3.1293e+00
3.5125e-01	1.4154e+00	3.1794e+00
3.5712e-01	1.4555e+00	3.2293e+00
3.6309e-01	1.4968e+00	3.2788e+00
3.6917e-01	1.5393e+00	3.3278e+00
3.7534e-01	1.5832e+00	3.3764e+00
3.8161e-01	1.6283e+00	3.4245e+00
3.8799e-01	1.6748e+00	3.4720e+00
3.9448e-01	1.7225e+00	3.5189e+00
4.0108e-01	1.7714e+00	3.5652e+00
4.0778e-01	1.8216e+00	3.6107e+00
4.1460e-01	1.8731e+00	3.6554e+00
4.2153e-01	1.9258e+00	3.6992e+00
4.2858e-01	1.9797e+00	3.7421e+00
4.3574e-01	2.0347e+00	3.7840e+00
4.4303e-01	2.0909e+00	3.8249e+00
4.5044e-01	2.1482e+00	3.8646e+00
4.5797e-01	2.2066e+00	3.9032e+00
4.6562e-01	2.2659e+00	3.9404e+00
4.7341e-01	2.3262e+00	3.9764e+00
4.8132e-01	2.3873e+00	4.0109e+00
4.8937e-01	2.4493e+00	4.0440e+00
4.9755e-01	2.5119e+00	4.0756e+00
5.0587e-01	2.5752e+00	4.1055e+00
5.1433e-01	2.6391e+00	4.1339e+00
5.2293e-01	2.7034e+00	4.1606e+00
5.3167e-01	2.7680e+00	4.1856e+00
5.4056e-01	2.8329e+00	4.2088e+00
5.4960e-01	2.8979e+00	4.2302e+00
5.5879e-01	2.9629e+00	4.2499e+00
5.6813e-01	3.0278e+00	4.2677e+00
5.7763e-01	3.0924e+00	4.2838e+00
5.8729e-01	3.1567e+00	4.2980e+00
5.9710e-01	3.2205e+00	4.3105e+00
6.0709e-01	3.2837e+00	4.3212e+00
6.1724e-01	3.3462e+00	4.3302e+00
6.2756e-01	3.4078e+00	4.3375e+00
6.3805e-01	3.4684e+00	4.3431e+00
6.4872e-01	3.5278e+00	4.3472e+00
6.5956e-01	3.5861e+00	4.3499e+00
6.7059e-01	3.6430e+00	4.3511e+00
6.8180e-01	3.6985e+00	4.3509e+00
6.9320e-01	3.7525e+00	4.3496e+00
7.0479e-01	3.8049e+00	4.3471e+00
7.1657e-01	3.8555e+00	4.3436e+00
7.2856e-01	3.9044e+00	4.3392e+00
7.4074e-01	3.9514e+00	4.3341e+00
7.5312e-01	3.9965e+00	4.3282e+00
7.6571e-01	4.0397e+00	4.3218e+00
7.7851e-01	4.0809e+00	4.3150e+00
7.9153e-01	4.1200e+00	4.3078e+00
8.0476e-01	4.1571e+00	4.3005e+00
8.1822e-01	4.1922e+00	4.2931e+00
8.3190e-01	4.2251e+00	4.2858e+00
8.4581e-01	4.2560e+00	4.2787e+00
8.5995e-01	4.2848e+00	4.2719e+00
8.7433e-01	4.3115e+00	4.2655e+00
8.8895e-01	4.3361e+00	4.2596e+00
9.0381e-01	4.3588e+00	4.2544e+00
9.1892e-01	4.3794e+00	4.2500e+00
9.3428e-01	4.3980e+00	4.2464e+00
9.4990e-01	4.4148e+00	4.2438e+00
9.6578e-01	4.4296e+00	4.2422e+00
9.8193e-01	4.4426e+00	4.2417e+00
9.9835e-01	4.4537e+00	4.2425e+00
1.0150e+00	4.4631e+00	4.2446e+00
1.0320e+00	4.4708e+00	4.2481e+00
1.0493e+00	4.4768e+00	4.2531e+00
1.0668e+00	4.4812e+00	4.2596e+00
1.0846e+00	4.4840e+00	4.2677e+00
1.1028e+00	4.4854e+00	4.2774e+00
1.1212e+00	4.4853e+00	4.2889e+00
1.1400e+00	4.4838e+00	4.3022e+00
1.1590e+00	4.4809e+00	4.3173e+00
1.1784e+00	4.4768e+00	4.3344e+00
1.1981e+00	4.4715e+00	4.3533e+00
1.2181e+00	4.4650e+00	4.3743e+00
1.2385e+00	4.4573e+00	4.3973e+00
1.2592e+00	4.4487e+00	4.4223e+00
1.2803e+00	4.4390e+00	4.4495e+00
1.3017e+00	4.4284e+00	4.4788e+00
1.3234e+00	4.4168e+00	4.5103e+00
1.3456e+00	4.4045e+00	4.5440e+00
1.3680e+00	4.3913e+00	4.5799e+00
1.3909e+00	4.3774e+00	4.6181e+00
1.4142e+00	4.3629e+00	4.6587e+00
1.4378e+00	4.3477e+00	4.7015e+00
1.4619e+00	4.3319e+00	4.7467e+00
1.4863e+00	4.3156e+00	4.7942e+00
1.5112e+00	4.2988e+00	4.8441e+00
1.5364e+00	4.2815e+00	4.8965e+00
1.5621e+00	4.2638e+00	4.9512e+00
1.5882e+00	4.2458e+00	5.0084e+00
1.6148e+00	4.2275e+00	5.0681e+00
1.6418e+00	4.2089e+00	5.1302e+00
1.6692e+00	4.1901e+00	5.1948e+00
1.6971e+00	4.1710e+00	5.2619e+00
1.7255e+00	4.1518e+00	5.3315e+00
1.7544e+00	4.1325e+00	5.4037e+00
1.7837e+00	4.1131e+00	5.4784e+00
1.8135e+00	4.0937e+00	5.5556e+00
1.8438e+00	4.0742e+00	5.6353e+00
1.8747e+00	4.0547e+00	5.7177e+00
1.9060e+00	4.0352e+00	5.8026e+00
1.9379e+00	4.0159e+00	5.8901e+00
1.9703e+00	3.9966e+00	5.9803e+00
2.0032e+00	3.9774e+00	6.0730e+00
2.0367e+00	3.9583e+00	6.1684e+00
2.0707e+00	3.9394e+00	6.2665e+00
2.1054e+00	3.9207e+00	6.3672e+00
2.1406e+00	3.9022e+00	6.4706e+00
2.1764e+00	3.8839e+00	6.5767e+00
2.2127e+00	3.8658e+00	6.6855e+00
2.2497e+00	3.8480e+00	6.7971e+00
2.2874e+00	3.8305e+00	6.9114e+00
2.3256e+00	3.8133e+00	7.0285e+00
2.3645e+00	3.7964e+00	7.1484e+00
2.4040e+00	3.7798e+00	7.2712e+00
2.4442e+00	3.7635e+00	7.3968e+00
2.4851e+00	3.7477e+00	7.5254e+00
2.5266e+00	3.7322e+00	7.6568e+00
2.5689e+00	3.7171e+00	7.7912e+00
2.6118e+00	3.7024e+00	7.9285e+00
2.6555e+00	3.6882e+00	8.0689e+00
2.6999e+00	3.6744e+00	8.2123e+00
2.7450e+00	3.6611e+00	8.3589e+00
2.7909e+00	3.6483e+00	8.5085e+00
2.8376e+00	3.6361e+00	8.6613e+00
2.8850e+00	3.6244e+00	8.8173e+00
2.9332e+00	3.6132e+00	8.9765e+00
2.9823e+00	3.6027e+00	9.1390e+00
3.0321e+00	3.5927e+00	9.3048e+00
3.0828e+00	3.5835e+00	9.4739e+00
3.1344e+00	3.5749e+00	9.6465e+00
3.1868e+00	3.5669e+00	9.8225e+00
3.2401e+00	3.5598e+00	1.0002e+01
3.2942e+00	3.5534e+00	1.0185e+01
3.3493e+00	3.5478e+00	1.0372e+01
3.4053e+00	3.5430e+00	1.0562e+01
3.4623e+00	3.5390e+00	1.0756e+01
3.5201e+00	3.5360e+00	1.0953e+01
3.5790e+00	3.5339e+00	1.1155e+01
3.6388e+00	3.5328e+00	1.1360e+01
3.6997e+00	3.5327e+00	1.1569e+01
3.7615e+00	3.5337e+00	1.1781e+01
3.8244e+00	3.5357e+00	1.1998e+01
3.8884e+00	3.5389e+00	1.2219e+01
3.9534e+00	3.5433e+00	1.2444e+01
4.0195e+00	3.5488e+00	1.2673e+01
4.0867e+00	3.5557e+00	1.2906e+01
4.1550e+00	3.5639e+00	1.3143e+01
4.2245e+00	3.5734e+00	1.3384e+01
4.2951e+00	3.5843e+00	1.3630e+01
4.3669e+00	3.5967e+00	1.3880e+01
4.4399e+00	3.6106e+00	1.4134e+01
4.5141e+00	3.6261e+00	1.4393e+01
4.5896e+00	3.6432e+00	1.4656e+01
4.6663e+00	3.6620e+00	1.4924e+01
4.7444e+00	3.6825e+00	1.5196e+01
4.8237e+00	3.7048e+00	1.5473e+01
4.9043e+00	3.7289e+00	1.5755e+01
4.9863e+00	3.7549e+00	1.6041e+01
5.0697e+00	3.7829e+00	1.6332e+01
5.1545e+00	3.8128e+00	1.6627e+01
5.2406e+00	3.8449e+00	1.6928e+01
5.3283e+00	3.8791e+00	1.7233e+01
5.4173e+00	3.9155e+00	1.7543e+01
5.5079e+00	3.9542e+00	1.7859e+01
5.6000e+00	3.9952e+00	1.8179e+01
5.6936e+00	4.0387e+00	1.8504e+01
5.7888e+00	4.0846e+00	1.8834e+01
5.8856e+00	4.1330e+00	1.9170e+01
5.9840e+00	4.1840e+00	1.9510e+01
6.0841e+00	4.2378e+00	1.9856e+01
6.1858e+00	4.2942e+00	2.0207e+01
6.2892e+00	4.3536e+00	2.0564e+01
6.3944e+00	4.4158e+00	2.0926e+01
6.5013e+00	4.4810e+00	2.1293e+01
6.6100e+00	4.5492e+00	2.1665e+01
6.7205e+00	4.6206e+00	2.2043e+01
6.8328e+00	4.6953e+00	2.2427e+01
6.9471e+00	4.7732e+00	2.2816e+01
7.0632e+00	4.8545e+00	2.3211e+01
7.1813e+00	4.9393e+00	2.3611e+01
7.3014e+00	5.0277e+00	2.4017e+01
7.4234e+00	5.1197e+00	2.4428e+01
7.5476e+00	5.2154e+00	2.4846e+01
7.6738e+00	5.3150e+00	2.5269e+01
7.8020e+00	5.4185e+00	2.5698e+01
7.9325e+00	5.5260e+00	2.6133e+01
8.0651e+00	5.6377e+00	2.6573e+01
8.2000e+00	5.7535e+00	2.7020e+01
8.3371e+00	5.8737e+00	2.7472e+01
8.4764e+00	5.9983e+00	2.7931e+01
8.6182e+00	6.1273e+00	2.8395e+01
8.7623e+00	6.2611e+00	2.8866e+01
8.9088e+00	6.3995e+00	2.9342e+01
9.0577e+00	6.5428e+00	2.9825e+01
9.2091e+00	6.6910e+00	3.0313e+01
9.3631e+00	6.8442e+00	3.0808e+01
9.5196e+00	7.0027e+00	3.1309e+01
9.6788e+00	7.1664e+00	3.1815e+01
9.8406e+00	7.3354e+00	3.2328e+01
1.0005e+01	7.5100e+00	3.2848e+01
1.0172e+01	7.6902e+00	3.3373e+01
1.0343e+01	7.8762e+00	3.3904e+01
1.0515e+01	8.0679e+00	3.4442e+01
1.0691e+01	8.2657e+00	3.4985e+01
1.0870e+01	8.4696e+00	3.5535e+01
1.1052e+01	8.6796e+00	3.6091e+01
1.1237e+01	8.8960e+00	3.6653e+01
1.1424e+01	9.1189e+00	3.7221e+01
1.1615e+01	9.3483e+00	3.7796e+01
1.1810e+01	9.5845e+00	3.8376e+01
1.2007e+01	9.8274e+00	3.8963e+01
1.2208e+01	1.0077e+01	3.9555e+01
1.2412e+01	1.0334e+01	4.0154e+01
1.2619e+01	1.0598e+01	4.0758e+01
1.2830e+01	1.0870e+01	4.1368e+01
1.3045e+01	1.1149e+01	4.1985e+01
1.3263e+01	1.1435e+01	4.2607e+01
1.3485e+01	1.1730e+01	4.3234e+01
1.3710e+01	1.2031e+01	4.3868e+01
1.3939e+01	1.2341e+01	4.4507e+01
1.4172e+01	1.2659e+01	4.5152e+01
1.4409e+01	1.2985e+01	4.5803e+01
1.4650e+01	1.3320e+01	4.6459e+01
1.4895e+01	1.3662e+01	4.7121e+01
1.5144e+01	1.4013e+01	4.7787e+01
1.5398e+01	1.4373e+01	4.8460e+01
1.5655e+01	1.4742e+01	4.9137e+01
1.5917e+01	1.5119e+01	4.9820e+01
1.6183e+01	1.5505e+01	5.0507e+01
1.6453e+01	1.5900e+01	5.1200e+01
1.6728e+01	1.6304e+01	5.1897e+01
1.7008e+01	1.6717e+01	5.2599e+01
1.7292e+01	1.7140e+01	5.3306e+01
1.7582e+01	1.7572e+01	5.4018e+01
1.7876e+01	1.8013e+01	5.4733e+01
1.8174e+01	1.8464e+01	5.5454e+01
1.8478e+01	1.8924e+01	5.6178e+01
1.8787e+01	1.9394e+01	5.6907e+01
1.9101e+01	1.9873e+01	5.7640e+01
1.9421e+01	2.0363e+01	5.8376e+01
1.9745e+01	2.0862e+01	5.9117e+01
2.0076e+01	2.1370e+01	5.9861e+01
2.0411e+01	2.1889e+01	6.0609e+01
2.0752e+01	2.2418e+01	6.1360e+01
2.1099e+01	2.2956e+01	6.2115e+01
2.1452e+01	2.3504e+01	6.2873e+01
2.1811e+01	2.4063e+01	6.3634e+01
2.2175e+01	2.4631e+01	6.4398e+01
2.2546e+01	2.5209e+01	6.5165e+01
2.2923e+01	2.5797e+01	6.5934e+01
2.3306e+01	2.6395e+01	6.6707e+01
2.3696e+01	2.7003e+01	6.7482e+01
2.4092e+01	2.7621e+01	6.8259e+01
2.4495e+01	2.8249e+01	6.9039e+01
2.4905e+01	2.8887e+01	6.9820e+01
2.5321e+01	2.9534e+01	7.0605e+01
2.5744e+01	3.0191e+01	7.1391e+01
2.6175e+01	3.0858e+01	7.2179e+01
2.6612e+01	3.1535e+01	7.2969e+01
2.7057e+01	3.2222e+01	7.3760e+01
2.7510e+01	3.2918e+01	7.4553e+01
2.7970e+01	3.3624e+01	7.5348e+01
2.8437e+01	3.4339e+01	7.6145e+01
2.8913e+01	3.5063e+01	7.6943e+01
2.9396e+01	3.5797e+01	7.7742e+01
2.9888e+01	3.6540e+01	7.8543e+01
3.0387e+01	3.7293e+01	7.9344e+01
3.0895e+01	3.8054e+01	8.0147e+01
3.1412e+01	3.8825e+01	8.0952e+01
3.1937e+01	3.9604e+01	8.1757e+01
3.2471e+01	4.0393e+01	8.2563e+01
3.3014e+01	4.1190e+01	8.3371e+01
3.3566e+01	4.1996e+01	8.4179e+01
3.4127e+01	4.2811e+01	8.4989e+01
3.4698e+01	4.3634e+01	8.5799e+01
3.5278e+01	4.4465e+01	8.6611e+01
3.5868e+01	4.5305e+01	8.7423e+01
3.6467e+01	4.6153e+01	8.8237e+01
3.7077e+01	4.7009e+01	8.9051e+01
3.7697e+01	4.7873e+01	8.9867e+01
3.8327e+01	4.8745e+01	9.0683e+01
3.8968e+01	4.9625e+01	9.1501e+01
3.9619e+01	5.0513e+01	9.2319e+01
4.0282e+01	5.1409e+01	9.3139e+01
4.0955e+01	5.2312e+01	9.3960e+01
4.1640e+01	5.3222e+01	9.4782e+01
4.2336e+01	5.4140e+01	9.5605e+01
4.3044e+01	5.5066e+01	9.6430e+01
4.3764e+01	5.5998e+01	9.7256e+01
4.4495e+01	5.6938e+01	9.8083e+01
4.5239e+01	5.7885e+01	9.8912e+01
4.5996e+01	5.8839e+01	9.9743e+01
4.6765e+01	5.9800e+01	1.0058e+02
4.7547e+01	6.0768e+01	1.0141e+02
4.8342e+01	6.1742e+01	1.0224e+02
4.9150e+01	6.2724e+01	1.0308e+02
4.9972e+01	6.3712e+01	1.0392e+02
5.0807e+01	6.4707e+01	1.0476e+02
5.1657e+01	6.5708e+01	1.0561e+02
5.2520e+01	6.6716e+01	1.0645e+02
5.3398e+01	6.7731e+01	1.0730e+02
5.4291e+01	6.8752e+01	1.0815e+02
5.5199e+01	6.9780e+01	1.0901e+02
5.6122e+01	7.0813e+01	1.0986e+02
5.7060e+01	7.1854e+01	1.1072e+02
5.8014e+01	7.2900e+01	1.1158e+02
5.8984e+01	7.3953e+01	1.1245e+02
5.9970e+01	7.5013e+01	1.1332e+02
6.0973e+01	7.6078e+01	1.1419e+02
6.1992e+01	7.7150e+01	1.1506e+02
