Material: main / Cs / Ives
Optical constants. H. E. Ives and H. B. Briggs. Optical constants of rubidium and cesium, J. Opt. Soc. Am. 27, 395-400 (1937)
wavelength (um)	n	k
0.2536	0.916	0.143
0.3126	0.827	0.174
0.3650	0.671	0.233
0.4047	0.540	0.320
0.4358	0.425	0.438
0.5461	0.278	0.950
0.5780	0.264	1.123
