Material: main / Cs / Smith
Optical constants. N. V. Smith. Optical constants of rubidium and cesium from 0.5 to 4.0 eV, Phs. Rev. B 2, 2840-2848 (1970)
Specs: {"n_absolute": true, "wavelength_vacuum": true}
wavelength (um)	n	k
0.312539	0.828383	0.173833
0.334099	0.690892	0.224348
0.364981	0.595515	0.269515
0.369992	0.562034	0.299804
0.386967	0.508871	0.333091
0.399949	0.441436	0.399832
0.420001	0.400244	0.458470
0.439972	0.339727	0.569574
0.469993	0.302976	0.683223
0.512967	0.272621	0.852832
0.556982	0.262607	0.984359
0.609858	0.260709	1.154543
0.673096	0.266029	1.362634
0.762980	0.279706	1.651737
0.885601	0.302600	1.982818
1.017098	0.318736	2.356182
1.185317	0.316566	2.751402
1.343274	0.306142	3.139064
1.435002	0.298357	3.408668
1.515699	0.288149	3.564131
1.595678	0.279656	3.770704
1.689158	0.272608	4.016754
1.766157	0.264679	4.188085
1.836803	0.257275	4.337763
1.904519	0.250691	4.543440
1.980578	0.238743	4.695423
2.039214	0.246495	4.862176
2.112167	0.241092	5.041639
2.167556	0.243133	5.153554
2.421566	0.262612	5.896521
