Material: main / D2O / Asfar
Optical constants. M. N. Afsar and J. B. Hasted. Measurements of the optical constants of liquid H2O and D2O between 6 and 450 cm−1, J. Opt. Soc. Am. 67, 902-904 (1977)
Comments: Heavy water (D2O) at 19.5 °C
Specs: {"n_absolute": true, "wavelength_vacuum": true, "temperature": "19.5 °C"}
wavelength (um)	n	k
250.0	2.02	0.525
285.7	2.05	0.553
333.3	2.09	0.557
400.0	2.14	0.586
500.0	2.19	0.633
666.7	2.28	0.722
1000	2.43	0.915
2000	3.02	1.146
