Material: main / D2O / Kedenburg
Optical constants. S. Kedenburg, M. Vieweg, T. Gissibl, and H. Giessen. Linear refractive index and absorption measurements of nonlinear optical liquids in the visible and near-infrared spectral region, Opt. Mat. Express 2, 1588-1611 (2012)
Comments: Heavy water (D2O) at 20 °C.
Specs: {"temperature": "20 °C"}
Dispersion formula 2, range 0.5 1.6 um, coefficients 0 -0.30637 -47.26686 0.74659 0.00893
wavelength (um)	k
0.5	2.72553e-08
0.50375	2.82214e-08
0.5075	2.69372e-08
0.51125	2.62005e-08
0.515	2.85237e-08
0.51875	2.79884e-08
0.5225	2.89391e-08
0.52625	2.72623e-08
0.53	2.71614e-08
0.53375	2.93499e-08
0.5375	2.96844e-08
0.54125	2.81256e-08
0.545	2.81036e-08
0.54875	2.72489e-08
0.5525	2.7655e-08
0.55625	2.7223e-08
0.56	2.82977e-08
0.56375	2.83975e-08
0.5675	2.94445e-08
0.57125	2.90935e-08
0.575	2.90557e-08
0.57875	2.91531e-08
0.5825	2.94347e-08
0.58625	2.91577e-08
0.59	3.03302e-08
0.59375	3.14679e-08
0.5975	3.13814e-08
0.60125	2.78942e-08
0.605	2.65275e-08
0.60875	2.63529e-08
0.6125	2.79287e-08
0.61625	2.80997e-08
0.62	2.91094e-08
0.62375	2.95833e-08
0.6275	2.85627e-08
0.63125	2.88339e-08
0.635	2.8702e-08
0.63875	2.82107e-08
0.6425	2.83252e-08
0.64625	3.12676e-08
0.65	3.10869e-08
0.65375	3.14744e-08
0.6575	3.05562e-08
0.66125	3.20459e-08
0.665	3.2704e-08
0.66875	3.34205e-08
0.6725	3.1949e-08
0.67625	3.27191e-08
0.68	3.33334e-08
0.68375	3.40613e-08
0.6875	3.39746e-08
0.69125	3.42149e-08
0.695	3.3571e-08
0.69875	3.21952e-08
0.7025	3.37655e-08
0.70625	3.34399e-08
0.71	4.0793e-08
0.71375	3.5499e-08
0.7175	3.60281e-08
0.72125	3.56425e-08
0.725	3.60585e-08
0.72875	3.42153e-08
0.7325	3.38668e-08
0.73625	3.50948e-08
0.74	3.53913e-08
0.74375	3.26705e-08
0.7475	3.49172e-08
0.75125	3.53913e-08
0.755	3.46067e-08
0.75875	3.62276e-08
0.7625	3.79236e-08
0.76625	3.80492e-08
0.77	3.60908e-08
0.77375	4.09461e-08
0.7775	3.84841e-08
0.78125	3.81723e-08
0.785	3.8418e-08
0.78875	4.21165e-08
0.7925	4.21275e-08
0.79625	4.32139e-08
0.8	4.21442e-08
0.80375	4.17661e-08
0.8075	4.3953e-08
0.81125	4.48027e-08
0.815	4.53989e-08
0.81875	4.48911e-08
0.8225	4.42459e-08
0.82625	4.47764e-08
0.83	4.44512e-08
0.83375	3.92778e-08
0.8375	4.37199e-08
0.84125	4.51876e-08
0.845	4.3439e-08
0.84875	4.60632e-08
0.8525	4.49099e-08
0.85625	4.48349e-08
0.86	4.1062e-08
0.86375	4.36468e-08
0.8675	4.79783e-08
0.87125	4.25004e-08
0.875	4.10819e-08
0.87875	4.33558e-08
0.8825	3.93272e-08
0.88625	4.25974e-08
0.89	4.24944e-08
0.89375	4.4167e-08
0.8975	4.14955e-08
0.90125	3.96607e-08
0.905	3.70171e-08
0.90875	3.91953e-08
0.9125	3.805e-08
0.91625	3.78418e-08
0.92	3.85091e-08
0.92375	3.63138e-08
0.9275	3.8454e-08
0.93125	3.88318e-08
0.935	4.31549e-08
0.93875	4.51955e-08
0.9425	4.58261e-08
0.94625	4.87192e-08
0.95	5.20118e-08
0.95375	5.82889e-08
0.9575	5.87467e-08
0.96125	7.19807e-08
0.965	7.28759e-08
0.96875	8.32579e-08
0.9725	9.05452e-08
0.97625	1.01771e-07
0.98	1.1074e-07
0.98375	1.19775e-07
0.9875	1.24947e-07
0.99125	1.29365e-07
0.995	1.36981e-07
0.99875	1.36702e-07
1.0025	1.08496e-07
1.00625	1.12105e-07
1.01	1.13326e-07
1.01375	1.1052e-07
1.0175	1.19836e-07
1.02125	1.13776e-07
1.025	1.27244e-07
1.02875	1.11337e-07
1.0325	1.19959e-07
1.03625	1.1957e-07
1.04	1.2083e-07
1.04375	1.07977e-07
1.0475	1.08365e-07
1.05125	1.12935e-07
1.055	1.05782e-07
1.05875	1.03631e-07
1.0625	9.55427e-08
1.06625	1.01819e-07
1.07	9.02568e-08
1.07375	9.31365e-08
1.0775	8.24007e-08
1.08125	9.29266e-08
1.085	8.26289e-08
1.08875	8.43007e-08
1.0925	8.25915e-08
1.09625	8.81092e-08
1.1	9.01613e-08
1.10375	8.48473e-08
1.1075	1.03996e-07
1.11125	1.01695e-07
1.115	1.13573e-07
1.11875	1.10394e-07
1.1225	1.27736e-07
1.12625	1.20096e-07
1.13	1.30388e-07
1.13375	1.32625e-07
1.1375	1.36684e-07
1.14125	1.37135e-07
1.145	1.42141e-07
1.14875	1.54491e-07
1.1525	1.53161e-07
1.15625	1.6102e-07
1.16	1.55081e-07
1.16375	1.71325e-07
1.1675	1.56083e-07
1.17125	1.75226e-07
1.175	1.75787e-07
1.17875	1.90418e-07
1.1825	1.83496e-07
1.18625	1.94461e-07
1.19	1.98864e-07
1.19375	1.96641e-07
1.1975	2.13459e-07
1.20125	2.12215e-07
1.205	2.31097e-07
1.20875	2.19312e-07
1.2125	2.46044e-07
1.21625	2.4874e-07
1.22	2.62128e-07
1.22375	2.46379e-07
1.2275	2.92067e-07
1.23125	3.11576e-07
1.235	3.37094e-07
1.23875	3.81491e-07
1.2425	4.20219e-07
1.24625	4.97851e-07
1.25	5.64005e-07
1.25375	6.81431e-07
1.2575	7.85539e-07
1.26125	9.4044e-07
1.265	1.06705e-06
1.26875	1.23176e-06
1.2725	1.36704e-06
1.27625	1.52341e-06
1.28	1.68068e-06
1.28375	1.82862e-06
1.2875	2.00814e-06
1.29125	2.13729e-06
1.295	2.27747e-06
1.29875	2.35641e-06
1.3025	2.46686e-06
1.30625	2.52594e-06
1.31	2.58531e-06
1.31375	2.62408e-06
1.3175	2.6735e-06
1.32125	2.70214e-06
1.325	2.72036e-06
1.32875	2.71748e-06
1.3325	2.70394e-06
1.33625	2.67965e-06
1.34	2.63386e-06
1.34375	2.58776e-06
1.3475	2.53064e-06
1.35125	2.47317e-06
1.355	2.3722e-06
1.35875	2.29227e-06
1.3625	2.19017e-06
1.36625	2.09835e-06
1.37	1.99509e-06
1.37375	1.89123e-06
1.3775	1.8087e-06
1.38125	1.69271e-06
1.385	1.58709e-06
1.38875	1.50298e-06
1.3925	1.44055e-06
1.39625	1.35554e-06
1.4	1.31462e-06
1.40375	1.23995e-06
1.4075	1.17606e-06
1.41125	1.10956e-06
1.415	1.05058e-06
1.41875	9.92396e-07
1.4225	9.38419e-07
1.42625	8.94359e-07
1.43	8.56882e-07
1.43375	8.26042e-07
1.4375	7.87021e-07
1.44125	7.73018e-07
1.445	7.43982e-07
1.44875	7.4476e-07
1.4525	7.31661e-07
1.45625	7.3355e-07
1.46	7.28468e-07
1.46375	7.37328e-07
1.4675	7.49727e-07
1.47125	7.75059e-07
1.475	7.93467e-07
1.47875	8.15489e-07
1.4825	8.41152e-07
1.48625	8.65751e-07
1.49	9.07064e-07
1.49375	9.36687e-07
1.4975	9.77172e-07
1.50125	1.01546e-06
1.505	1.07189e-06
1.50875	1.13579e-06
1.5125	1.21565e-06
1.51625	1.33932e-06
1.52	1.49988e-06
1.52375	1.72184e-06
1.5275	1.9935e-06
1.53125	2.35176e-06
1.535	2.71176e-06
1.53875	3.11023e-06
1.5425	3.5106e-06
1.54625	3.97441e-06
1.55	4.46509e-06
1.55375	4.9952e-06
1.5575	5.50302e-06
1.56125	5.95111e-06
1.565	6.32657e-06
1.56875	6.60389e-06
1.5725	6.84492e-06
1.57625	7.0243e-06
1.58	7.15417e-06
1.58375	7.25938e-06
1.5875	7.35236e-06
1.59125	7.43304e-06
1.595	7.52672e-06
1.59875	7.63347e-06
1.6025	7.74064e-06
1.60625	7.83545e-06
1.61	7.9178e-06
1.61375	7.96192e-06
1.6175	7.9933e-06
1.62125	7.98603e-06
1.625	7.95277e-06
1.62875	7.91928e-06
1.6325	7.85957e-06
1.63625	7.7995e-06
1.64	7.72602e-06
1.64375	7.6652e-06
1.6475	7.59091e-06
1.65125	7.51621e-06
1.655	7.44109e-06
1.65875	7.68235e-06
1.6625	7.7791e-06
1.66625	7.96902e-06
1.67	8.21287e-06
1.67375	8.39115e-06
1.6775	8.3165e-06
1.68125	8.17455e-06
1.685	7.95142e-06
1.68875	7.74066e-06
1.6925	7.58276e-06
1.69625	7.42408e-06
1.7	7.29168e-06
1.70375	7.1993e-06
1.7075	7.14721e-06
1.71125	7.12205e-06
1.715	7.15131e-06
1.71875	7.11224e-06
1.7225	7.21e-06
1.72625	7.30812e-06
1.73	7.40659e-06
1.73375	7.50543e-06
1.7375	7.63228e-06
1.74125	7.78731e-06
1.745	7.94295e-06
1.74875	8.08526e-06
