Material: main / D2O / Wang
Optical constants. Y. Wang, W. Wen, K. Wang, P. Zhai, P. Qiu, K. Wang. Measurement of absorption spectrum of deuterium oxide (D2O) and its application to signal enhancement in multiphoton microscopy at the 1700-nm window, Appl. Phys. Lett. 108, 021112 (2016)
Comments: 22 °C.
Specs: {"temperature": "22 °C"}
wavelength (um)	k
1.200	9.60659E-08
1.204	1.10279E-07
1.208	1.11799E-07
1.212	9.64479E-08
1.216	1.45440E-07
1.220	1.28249E-07
1.224	1.37533E-07
1.228	1.58113E-07
1.232	1.86569E-07
1.236	2.16387E-07
1.240	2.64847E-07
1.244	3.03517E-07
1.248	3.94768E-07
1.252	5.29439E-07
1.256	5.71710E-07
1.260	7.51606E-07
1.264	8.90487E-07
1.268	1.06515E-06
1.272	1.23593E-06
1.276	1.37334E-06
1.280	1.55661E-06
1.284	1.70013E-06
1.288	1.89679E-06
1.292	2.09072E-06
1.296	2.19290E-06
1.300	2.29174E-06
1.304	2.41201E-06
1.308	2.45407E-06
1.312	2.51597E-06
1.316	2.59412E-06
1.320	2.58225E-06
1.324	2.63802E-06
1.328	2.66321E-06
1.332	2.61665E-06
1.336	2.62387E-06
1.340	2.55420E-06
1.344	2.47819E-06
1.348	2.41476E-06
1.352	2.32671E-06
1.356	2.22116E-06
1.360	2.12013E-06
1.364	2.07308E-06
1.368	1.91956E-06
1.372	1.79678E-06
1.376	1.69121E-06
1.380	1.61431E-06
1.384	1.46216E-06
1.388	1.38343E-06
1.392	1.30556E-06
1.396	1.22777E-06
1.400	1.13882E-06
1.404	1.08587E-06
1.408	1.01838E-06
1.412	9.51830E-07
1.416	8.46014E-07
1.420	8.22979E-07
1.424	7.68412E-07
1.428	7.14774E-07
1.432	6.90453E-07
1.436	6.37759E-07
1.440	6.20742E-07
1.444	6.30166E-07
1.448	5.68997E-07
1.452	5.41220E-07
1.456	5.53254E-07
1.460	5.76617E-07
1.464	5.60488E-07
1.468	6.00220E-07
1.472	6.33131E-07
1.476	6.47654E-07
1.480	6.69431E-07
1.484	6.91907E-07
1.488	7.12481E-07
1.492	7.76966E-07
1.496	7.81907E-07
1.500	8.41174E-07
1.504	8.58617E-07
1.508	9.50422E-07
1.512	1.00901E-06
1.516	1.14040E-06
1.520	1.29655E-06
1.524	1.53002E-06
1.528	1.88325E-06
1.532	2.22869E-06
1.536	2.68334E-06
1.540	3.06386E-06
1.544	3.56242E-06
1.548	4.09199E-06
1.552	4.63758E-06
1.556	5.24079E-06
1.560	5.72898E-06
1.564	6.17355E-06
1.568	6.53634E-06
1.572	6.74404E-06
1.576	6.96023E-06
1.580	7.07245E-06
1.584	7.17052E-06
1.588	7.31032E-06
1.592	7.33418E-06
1.596	7.43872E-06
1.600	7.53771E-06
1.604	7.69185E-06
1.608	7.69939E-06
1.612	7.76831E-06
1.616	7.79376E-06
1.620	7.85920E-06
1.624	7.80740E-06
1.628	7.81484E-06
1.632	7.64041E-06
1.636	7.53611E-06
1.640	7.50389E-06
1.644	7.40799E-06
1.648	7.21146E-06
1.652	7.25775E-06
1.656	7.10204E-06
1.660	6.99502E-06
1.664	6.93653E-06
1.668	6.78184E-06
1.672	6.63445E-06
1.676	6.55256E-06
1.680	6.30657E-06
1.684	6.32882E-06
1.688	6.16560E-06
1.692	6.14264E-06
1.696	5.91356E-06
1.700	5.92331E-06
1.704	5.87812E-06
1.708	5.76837E-06
1.712	5.74646E-06
1.716	5.79539E-06
1.720	5.83628E-06
1.724	5.88566E-06
1.728	5.98017E-06
1.732	6.10413E-06
1.736	6.24464E-06
1.740	6.49234E-06
1.744	6.64688E-06
1.748	6.94450E-06
1.752	7.50106E-06
1.756	7.78397E-06
1.760	8.12509E-06
1.764	8.61648E-06
1.768	9.18669E-06
1.772	9.67323E-06
1.776	1.03193E-05
1.780	1.09460E-05
1.784	1.20089E-05
1.788	1.28884E-05
1.792	1.35309E-05
1.796	1.47536E-05
1.800	1.58774E-05
1.804	1.61475E-05
1.808	1.75913E-05
1.812	1.94065E-05
1.816	1.93829E-05
1.820	2.11097E-05
1.824	2.22589E-05
1.828	2.30112E-05
1.832	2.53442E-05
1.836	2.68629E-05
1.840	2.92646E-05
1.844	3.12204E-05
1.848	3.39293E-05
1.852	3.74132E-05
1.856	4.31734E-05
1.860	4.72881E-05
1.864	5.58773E-05
1.868	6.59233E-05
1.872	7.77441E-05
1.876	8.57820E-05
1.880	9.94685E-05
1.884	1.11901E-04
1.888	1.22517E-04
1.892	1.38221E-04
1.896	1.51958E-04
1.900	1.66413E-04
1.904	1.84382E-04
1.908	2.00117E-04
1.912	2.16074E-04
1.916	2.31605E-04
1.920	2.48870E-04
1.924	2.55664E-04
1.928	2.77038E-04
1.932	2.85401E-04
1.936	2.93725E-04
1.940	3.01229E-04
1.944	3.12643E-04
1.948	3.24351E-04
1.952	3.32922E-04
1.956	3.39840E-04
1.960	3.49172E-04
1.964	3.54041E-04
1.968	3.58170E-04
1.972	3.54237E-04
1.976	3.76770E-04
1.980	3.66014E-04
1.984	3.65408E-04
1.988	3.60171E-04
1.992	3.57957E-04
1.996	3.43553E-04
2.000	3.40998E-04
2.004	3.24532E-04
2.008	3.26412E-04
2.012	3.21699E-04
2.016	3.02778E-04
2.020	2.93071E-04
2.024	2.82729E-04
2.028	2.75800E-04
2.032	2.62084E-04
2.036	2.52285E-04
2.040	2.40426E-04
2.044	2.34044E-04
2.048	2.24276E-04
2.052	2.15935E-04
2.056	2.04036E-04
2.060	1.93468E-04
2.064	1.87244E-04
2.068	1.77490E-04
2.072	1.73866E-04
2.076	1.63056E-04
2.080	1.55461E-04
2.084	1.48028E-04
2.088	1.39799E-04
2.092	1.35218E-04
2.096	1.28640E-04
2.100	1.23229E-04
2.104	1.19281E-04
2.108	1.13637E-04
2.112	1.06113E-04
2.116	1.03134E-04
2.120	9.76772E-05
2.124	9.46896E-05
2.128	9.07349E-05
2.132	8.87177E-05
2.136	8.30328E-05
2.140	8.08552E-05
2.144	7.74904E-05
2.148	7.54506E-05
2.152	7.25351E-05
2.156	6.96280E-05
2.160	6.82927E-05
2.164	6.58220E-05
2.168	6.35602E-05
2.172	6.10906E-05
2.176	5.97676E-05
2.180	5.75008E-05
2.184	5.53853E-05
2.188	5.26402E-05
2.192	5.24554E-05
2.196	5.00764E-05
2.200	4.88979E-05
2.204	4.81588E-05
2.208	4.55962E-05
2.212	4.44223E-05
2.216	4.32846E-05
2.220	4.19593E-05
2.224	4.20960E-05
2.228	4.07225E-05
2.232	3.96913E-05
2.236	4.01721E-05
2.240	3.81712E-05
2.244	3.79722E-05
2.248	3.71131E-05
2.252	3.65601E-05
2.256	3.62325E-05
2.260	3.60275E-05
2.264	3.52616E-05
2.268	3.45343E-05
2.272	3.49490E-05
2.276	3.40930E-05
2.280	3.50512E-05
2.284	3.47361E-05
2.288	3.54886E-05
2.292	3.54666E-05
2.296	3.55495E-05
2.300	3.50847E-05
2.304	3.56101E-05
2.308	3.57777E-05
2.312	3.74919E-05
2.316	3.70263E-05
2.320	3.77704E-05
2.324	3.69839E-05
2.328	3.80500E-05
2.332	3.92049E-05
2.336	4.09201E-05
2.340	4.06685E-05
2.344	4.17045E-05
2.348	4.35180E-05
2.352	4.49066E-05
2.356	4.64724E-05
2.360	4.78486E-05
2.364	4.97706E-05
2.368	5.11133E-05
2.372	5.14386E-05
2.376	5.46163E-05
2.380	5.62128E-05
2.384	5.83822E-05
2.388	6.12369E-05
2.392	6.14271E-05
2.396	6.39005E-05
2.400	6.52607E-05
2.404	6.73957E-05
2.408	6.94492E-05
2.412	6.89237E-05
2.416	7.12072E-05
2.420	7.16577E-05
2.424	7.17316E-05
2.428	7.27621E-05
2.432	7.30825E-05
2.436	7.24215E-05
2.440	7.30994E-05
2.444	7.43834E-05
2.448	7.36979E-05
2.452	7.44472E-05
2.456	7.56262E-05
2.460	7.64255E-05
2.464	7.70014E-05
2.468	7.97492E-05
2.472	8.15091E-05
2.476	8.44312E-05
2.480	8.57945E-05
2.484	8.82314E-05
2.488	9.23398E-05
2.492	9.59128E-05
2.496	1.02149E-04
2.500	1.07925E-04
2.504	1.19637E-04
2.508	1.30053E-04
2.512	1.49132E-04
2.516	1.58590E-04
2.520	1.85277E-04
2.524	2.10545E-04
2.528	2.52800E-04
2.532	2.89504E-04
2.536	3.41192E-04
2.540	4.12706E-04
2.544	4.85142E-04
2.548	5.93871E-04
2.552	7.17786E-04
2.556	8.61405E-04
2.560	9.55982E-04
2.564	1.09995E-03
2.568	1.27859E-03
2.572	1.46838E-03
2.576	1.63139E-03
2.580	1.72433E-03
2.584	1.82857E-03
2.588	1.97271E-03
2.592	2.03442E-03
2.596	2.05848E-03
2.600	2.10358E-03
