Material: main / CdS / Ninomiya-e
Optical constants. S. Ninomiya and S. Adachi. Optical properties of wurtzite CdS, J. Appl. Phys. 78, 1183-1190 (1995)[Calculation script (Python)]
Comments: Fit of author's experimental data to a simplified model of the interband transitions (MDF). Extraordinary ray (e), room temperature.
wavelength (um)	n	k
2.1752e-01	1.8871e+00	2.0139e+00
2.1821e-01	1.9153e+00	2.0138e+00
2.1890e-01	1.9440e+00	2.0126e+00
2.1960e-01	1.9731e+00	2.0103e+00
2.2030e-01	2.0025e+00	2.0068e+00
2.2101e-01	2.0321e+00	2.0022e+00
2.2173e-01	2.0619e+00	1.9962e+00
2.2244e-01	2.0917e+00	1.9890e+00
2.2317e-01	2.1216e+00	1.9805e+00
2.2389e-01	2.1513e+00	1.9708e+00
2.2462e-01	2.1808e+00	1.9597e+00
2.2536e-01	2.2100e+00	1.9473e+00
2.2610e-01	2.2388e+00	1.9337e+00
2.2685e-01	2.2671e+00	1.9188e+00
2.2760e-01	2.2949e+00	1.9027e+00
2.2835e-01	2.3219e+00	1.8854e+00
2.2912e-01	2.3482e+00	1.8669e+00
2.2988e-01	2.3737e+00	1.8474e+00
2.3065e-01	2.3983e+00	1.8269e+00
2.3143e-01	2.4219e+00	1.8054e+00
2.3221e-01	2.4445e+00	1.7831e+00
2.3300e-01	2.4660e+00	1.7600e+00
2.3379e-01	2.4863e+00	1.7362e+00
2.3459e-01	2.5055e+00	1.7118e+00
2.3539e-01	2.5235e+00	1.6869e+00
2.3620e-01	2.5403e+00	1.6615e+00
2.3702e-01	2.5560e+00	1.6358e+00
2.3784e-01	2.5703e+00	1.6098e+00
2.3866e-01	2.5835e+00	1.5836e+00
2.3949e-01	2.5955e+00	1.5574e+00
2.4033e-01	2.6064e+00	1.5311e+00
2.4117e-01	2.6161e+00	1.5048e+00
2.4202e-01	2.6247e+00	1.4787e+00
2.4288e-01	2.6322e+00	1.4528e+00
2.4374e-01	2.6386e+00	1.4271e+00
2.4461e-01	2.6441e+00	1.4017e+00
2.4548e-01	2.6487e+00	1.3767e+00
2.4636e-01	2.6523e+00	1.3520e+00
2.4724e-01	2.6551e+00	1.3278e+00
2.4814e-01	2.6571e+00	1.3040e+00
2.4904e-01	2.6583e+00	1.2807e+00
2.4994e-01	2.6588e+00	1.2579e+00
2.5085e-01	2.6587e+00	1.2356e+00
2.5177e-01	2.6580e+00	1.2139e+00
2.5270e-01	2.6566e+00	1.1927e+00
2.5363e-01	2.6548e+00	1.1720e+00
2.5457e-01	2.6525e+00	1.1519e+00
2.5552e-01	2.6497e+00	1.1324e+00
2.5647e-01	2.6466e+00	1.1134e+00
2.5743e-01	2.6431e+00	1.0950e+00
2.5840e-01	2.6392e+00	1.0772e+00
2.5937e-01	2.6351e+00	1.0599e+00
2.6035e-01	2.6307e+00	1.0431e+00
2.6134e-01	2.6260e+00	1.0269e+00
2.6234e-01	2.6212e+00	1.0112e+00
2.6335e-01	2.6161e+00	9.9600e-01
2.6436e-01	2.6110e+00	9.8131e-01
2.6538e-01	2.6057e+00	9.6711e-01
2.6641e-01	2.6002e+00	9.5339e-01
2.6745e-01	2.5947e+00	9.4013e-01
2.6849e-01	2.5892e+00	9.2732e-01
2.6954e-01	2.5835e+00	9.1496e-01
2.7060e-01	2.5778e+00	9.0302e-01
2.7167e-01	2.5721e+00	8.9149e-01
2.7275e-01	2.5664e+00	8.8037e-01
2.7384e-01	2.5607e+00	8.6963e-01
2.7493e-01	2.5550e+00	8.5927e-01
2.7604e-01	2.5494e+00	8.4927e-01
2.7715e-01	2.5437e+00	8.3962e-01
2.7827e-01	2.5381e+00	8.3031e-01
2.7940e-01	2.5326e+00	8.2132e-01
2.8054e-01	2.5271e+00	8.1265e-01
2.8169e-01	2.5217e+00	8.0428e-01
2.8285e-01	2.5163e+00	7.9620e-01
2.8402e-01	2.5110e+00	7.8841e-01
2.8520e-01	2.5058e+00	7.8089e-01
2.8639e-01	2.5007e+00	7.7362e-01
2.8758e-01	2.4957e+00	7.6661e-01
2.8879e-01	2.4908e+00	7.5984e-01
2.9001e-01	2.4859e+00	7.5330e-01
2.9124e-01	2.4812e+00	7.4698e-01
2.9248e-01	2.4766e+00	7.4087e-01
2.9373e-01	2.4721e+00	7.3497e-01
2.9499e-01	2.4676e+00	7.2927e-01
2.9626e-01	2.4633e+00	7.2376e-01
2.9754e-01	2.4591e+00	7.1842e-01
2.9884e-01	2.4551e+00	7.1326e-01
3.0014e-01	2.4511e+00	7.0827e-01
3.0146e-01	2.4472e+00	7.0343e-01
3.0279e-01	2.4435e+00	6.9875e-01
3.0412e-01	2.4399e+00	6.9421e-01
3.0548e-01	2.4364e+00	6.8981e-01
3.0684e-01	2.4330e+00	6.8555e-01
3.0822e-01	2.4297e+00	6.8140e-01
3.0960e-01	2.4266e+00	6.7738e-01
3.1100e-01	2.4235e+00	6.7348e-01
3.1242e-01	2.4206e+00	6.6968e-01
3.1384e-01	2.4178e+00	6.6598e-01
3.1528e-01	2.4152e+00	6.6239e-01
3.1674e-01	2.4126e+00	6.5888e-01
3.1820e-01	2.4102e+00	6.5546e-01
3.1968e-01	2.4079e+00	6.5213e-01
3.2118e-01	2.4057e+00	6.4887e-01
3.2268e-01	2.4036e+00	6.4568e-01
3.2421e-01	2.4017e+00	6.4257e-01
3.2574e-01	2.3998e+00	6.3951e-01
3.2729e-01	2.3981e+00	6.3651e-01
3.2886e-01	2.3965e+00	6.3357e-01
3.3044e-01	2.3950e+00	6.3068e-01
3.3204e-01	2.3937e+00	6.2783e-01
3.3365e-01	2.3924e+00	6.2502e-01
3.3527e-01	2.3913e+00	6.2225e-01
3.3692e-01	2.3903e+00	6.1952e-01
3.3858e-01	2.3894e+00	6.1681e-01
3.4025e-01	2.3886e+00	6.1412e-01
3.4195e-01	2.3879e+00	6.1146e-01
3.4365e-01	2.3874e+00	6.0881e-01
3.4538e-01	2.3870e+00	6.0617e-01
3.4713e-01	2.3866e+00	6.0354e-01
3.4889e-01	2.3864e+00	6.0091e-01
3.5067e-01	2.3863e+00	5.9829e-01
3.5246e-01	2.3863e+00	5.9565e-01
3.5428e-01	2.3865e+00	5.9301e-01
3.5612e-01	2.3867e+00	5.9036e-01
3.5797e-01	2.3870e+00	5.8768e-01
3.5984e-01	2.3875e+00	5.8499e-01
3.6174e-01	2.3881e+00	5.8227e-01
3.6365e-01	2.3887e+00	5.7951e-01
3.6559e-01	2.3895e+00	5.7673e-01
3.6754e-01	2.3904e+00	5.7390e-01
3.6952e-01	2.3914e+00	5.7102e-01
3.7151e-01	2.3925e+00	5.6810e-01
3.7353e-01	2.3937e+00	5.6512e-01
3.7557e-01	2.3949e+00	5.6209e-01
3.7764e-01	2.3963e+00	5.5898e-01
3.7972e-01	2.3978e+00	5.5581e-01
3.8183e-01	2.3994e+00	5.5256e-01
3.8396e-01	2.4011e+00	5.4923e-01
3.8612e-01	2.4029e+00	5.4581e-01
3.8830e-01	2.4047e+00	5.4230e-01
3.9051e-01	2.4067e+00	5.3868e-01
3.9274e-01	2.4087e+00	5.3496e-01
3.9500e-01	2.4108e+00	5.3113e-01
3.9728e-01	2.4130e+00	5.2717e-01
3.9959e-01	2.4152e+00	5.2309e-01
4.0192e-01	2.4176e+00	5.1887e-01
4.0429e-01	2.4199e+00	5.1450e-01
4.0668e-01	2.4224e+00	5.0998e-01
4.0910e-01	2.4249e+00	5.0530e-01
4.1155e-01	2.4274e+00	5.0045e-01
4.1403e-01	2.4299e+00	4.9542e-01
4.1654e-01	2.4325e+00	4.9020e-01
4.1908e-01	2.4351e+00	4.8477e-01
4.2165e-01	2.4377e+00	4.7914e-01
4.2425e-01	2.4402e+00	4.7328e-01
4.2688e-01	2.4427e+00	4.6719e-01
4.2955e-01	2.4452e+00	4.6086e-01
4.3225e-01	2.4475e+00	4.5428e-01
4.3499e-01	2.4497e+00	4.4744e-01
4.3776e-01	2.4518e+00	4.4032e-01
4.4056e-01	2.4536e+00	4.3294e-01
4.4340e-01	2.4552e+00	4.2528e-01
4.4628e-01	2.4564e+00	4.1737e-01
4.4920e-01	2.4572e+00	4.0920e-01
4.5215e-01	2.4574e+00	4.0083e-01
4.5515e-01	2.4570e+00	3.9232e-01
4.5818e-01	2.4558e+00	3.8377e-01
4.6125e-01	2.4535e+00	3.7537e-01
4.6437e-01	2.4500e+00	3.6740e-01
4.6753e-01	2.4449e+00	3.6037e-01
4.7073e-01	2.4381e+00	3.5509e-01
4.7398e-01	2.4294e+00	3.5289e-01
4.7727e-01	2.4197e+00	3.5594e-01
4.8060e-01	2.4114e+00	3.6716e-01
4.8399e-01	2.4115e+00	3.8844e-01
4.8742e-01	2.4307e+00	4.1395e-01
4.9090e-01	2.4705e+00	4.2506e-01
4.9443e-01	2.5112e+00	4.1163e-01
4.9801e-01	2.5408e+00	3.8849e-01
5.0165e-01	2.5691e+00	3.6105e-01
5.0533e-01	2.5932e+00	3.1870e-01
5.0908e-01	2.5982e+00	2.6705e-01
5.1287e-01	2.5851e+00	2.2148e-01
5.1673e-01	2.5634e+00	1.8744e-01
5.2064e-01	2.5399e+00	1.6321e-01
5.2462e-01	2.5173e+00	1.4584e-01
5.2865e-01	2.4966e+00	1.3308e-01
5.3275e-01	2.4777e+00	1.2341e-01
5.3691e-01	2.4606e+00	1.1586e-01
5.4114e-01	2.4450e+00	1.0982e-01
5.4543e-01	2.4307e+00	1.0486e-01
5.4979e-01	2.4175e+00	1.0071e-01
5.5422e-01	2.4053e+00	9.7166e-02
5.5873e-01	2.3939e+00	9.4101e-02
5.6331e-01	2.3833e+00	9.1409e-02
5.6796e-01	2.3733e+00	8.9016e-02
5.7269e-01	2.3638e+00	8.6867e-02
5.7750e-01	2.3549e+00	8.4917e-02
5.8240e-01	2.3464e+00	8.3135e-02
5.8737e-01	2.3383e+00	8.1493e-02
5.9244e-01	2.3306e+00	7.9971e-02
5.9759e-01	2.3232e+00	7.8552e-02
6.0283e-01	2.3162e+00	7.7221e-02
6.0816e-01	2.3093e+00	7.5968e-02
6.1359e-01	2.3028e+00	7.4783e-02
6.1911e-01	2.2965e+00	7.3658e-02
6.2474e-01	2.2904e+00	7.2587e-02
6.3047e-01	2.2845e+00	7.1564e-02
6.3631e-01	2.2788e+00	7.0584e-02
6.4225e-01	2.2733e+00	6.9643e-02
6.4831e-01	2.2679e+00	6.8738e-02
6.5448e-01	2.2627e+00	6.7865e-02
6.6077e-01	2.2576e+00	6.7022e-02
6.6719e-01	2.2527e+00	6.6206e-02
6.7372e-01	2.2479e+00	6.5415e-02
6.8039e-01	2.2432e+00	6.4648e-02
6.8719e-01	2.2387e+00	6.3903e-02
6.9413e-01	2.2342e+00	6.3178e-02
7.0121e-01	2.2299e+00	6.2472e-02
7.0844e-01	2.2257e+00	6.1783e-02
7.1582e-01	2.2215e+00	6.1112e-02
7.2335e-01	2.2175e+00	6.0456e-02
7.3104e-01	2.2136e+00	5.9816e-02
7.3890e-01	2.2097e+00	5.9189e-02
7.4693e-01	2.2059e+00	5.8576e-02
7.5513e-01	2.2022e+00	5.7975e-02
7.6352e-01	2.1986e+00	5.7387e-02
7.7210e-01	2.1950e+00	5.6810e-02
7.8087e-01	2.1915e+00	5.6245e-02
7.8984e-01	2.1881e+00	5.5690e-02
7.9902e-01	2.1848e+00	5.5145e-02
8.0842e-01	2.1815e+00	5.4609e-02
8.1804e-01	2.1782e+00	5.4084e-02
8.2789e-01	2.1751e+00	5.3567e-02
8.3798e-01	2.1720e+00	5.3058e-02
8.4832e-01	2.1689e+00	5.2559e-02
8.5892e-01	2.1659e+00	5.2067e-02
8.6979e-01	2.1630e+00	5.1583e-02
8.8094e-01	2.1601e+00	5.1106e-02
8.9237e-01	2.1572e+00	5.0637e-02
9.0411e-01	2.1544e+00	5.0175e-02
9.1616e-01	2.1517e+00	4.9719e-02
9.2853e-01	2.1490e+00	4.9271e-02
9.4125e-01	2.1463e+00	4.8828e-02
9.5431e-01	2.1437e+00	4.8392e-02
9.6775e-01	2.1411e+00	4.7962e-02
9.8157e-01	2.1386e+00	4.7538e-02
9.9578e-01	2.1361e+00	4.7120e-02
1.0104e+00	2.1336e+00	4.6707e-02
1.0255e+00	2.1312e+00	4.6300e-02
