Material: main / CdS / Ninomiya-o
Optical constants. S. Ninomiya and S. Adachi. Optical properties of wurtzite CdS, J. Appl. Phys. 78, 1183-1190 (1995)[Calculation script (Python)]
Comments: Fit of author's experimental data to a simplified model of the interband transitions (MDF). Ordinary ray (o), room temperature.
wavelength (um)	n	k
2.1752e-01	1.6500e+00	1.6255e+00
2.1821e-01	1.6665e+00	1.6362e+00
2.1890e-01	1.6847e+00	1.6463e+00
2.1960e-01	1.7046e+00	1.6555e+00
2.2030e-01	1.7260e+00	1.6635e+00
2.2101e-01	1.7487e+00	1.6702e+00
2.2173e-01	1.7727e+00	1.6754e+00
2.2244e-01	1.7977e+00	1.6788e+00
2.2317e-01	1.8234e+00	1.6803e+00
2.2389e-01	1.8496e+00	1.6798e+00
2.2462e-01	1.8759e+00	1.6773e+00
2.2536e-01	1.9020e+00	1.6727e+00
2.2610e-01	1.9276e+00	1.6661e+00
2.2685e-01	1.9525e+00	1.6576e+00
2.2760e-01	1.9763e+00	1.6475e+00
2.2835e-01	1.9987e+00	1.6358e+00
2.2912e-01	2.0197e+00	1.6229e+00
2.2988e-01	2.0390e+00	1.6091e+00
2.3065e-01	2.0566e+00	1.5946e+00
2.3143e-01	2.0725e+00	1.5799e+00
2.3221e-01	2.0867e+00	1.5651e+00
2.3300e-01	2.0992e+00	1.5506e+00
2.3379e-01	2.1103e+00	1.5366e+00
2.3459e-01	2.1202e+00	1.5233e+00
2.3539e-01	2.1289e+00	1.5110e+00
2.3620e-01	2.1368e+00	1.4998e+00
2.3702e-01	2.1442e+00	1.4897e+00
2.3784e-01	2.1512e+00	1.4809e+00
2.3866e-01	2.1582e+00	1.4732e+00
2.3949e-01	2.1653e+00	1.4667e+00
2.4033e-01	2.1729e+00	1.4612e+00
2.4117e-01	2.1811e+00	1.4568e+00
2.4202e-01	2.1901e+00	1.4531e+00
2.4288e-01	2.2001e+00	1.4500e+00
2.4374e-01	2.2113e+00	1.4473e+00
2.4461e-01	2.2236e+00	1.4449e+00
2.4548e-01	2.2372e+00	1.4424e+00
2.4636e-01	2.2521e+00	1.4395e+00
2.4724e-01	2.2683e+00	1.4362e+00
2.4814e-01	2.2856e+00	1.4320e+00
2.4904e-01	2.3040e+00	1.4269e+00
2.4994e-01	2.3233e+00	1.4205e+00
2.5085e-01	2.3434e+00	1.4127e+00
2.5177e-01	2.3641e+00	1.4033e+00
2.5270e-01	2.3850e+00	1.3923e+00
2.5363e-01	2.4060e+00	1.3796e+00
2.5457e-01	2.4267e+00	1.3650e+00
2.5552e-01	2.4470e+00	1.3488e+00
2.5647e-01	2.4666e+00	1.3308e+00
2.5743e-01	2.4852e+00	1.3113e+00
2.5840e-01	2.5027e+00	1.2904e+00
2.5937e-01	2.5188e+00	1.2682e+00
2.6035e-01	2.5334e+00	1.2450e+00
2.6134e-01	2.5465e+00	1.2209e+00
2.6234e-01	2.5579e+00	1.1962e+00
2.6335e-01	2.5677e+00	1.1711e+00
2.6436e-01	2.5757e+00	1.1457e+00
2.6538e-01	2.5821e+00	1.1203e+00
2.6641e-01	2.5870e+00	1.0951e+00
2.6745e-01	2.5903e+00	1.0701e+00
2.6849e-01	2.5922e+00	1.0456e+00
2.6954e-01	2.5929e+00	1.0217e+00
2.7060e-01	2.5923e+00	9.9843e-01
2.7167e-01	2.5906e+00	9.7587e-01
2.7275e-01	2.5880e+00	9.5409e-01
2.7384e-01	2.5845e+00	9.3314e-01
2.7493e-01	2.5803e+00	9.1303e-01
2.7604e-01	2.5754e+00	8.9379e-01
2.7715e-01	2.5699e+00	8.7541e-01
2.7827e-01	2.5640e+00	8.5789e-01
2.7940e-01	2.5577e+00	8.4121e-01
2.8054e-01	2.5511e+00	8.2536e-01
2.8169e-01	2.5442e+00	8.1030e-01
2.8285e-01	2.5372e+00	7.9603e-01
2.8402e-01	2.5300e+00	7.8250e-01
2.8520e-01	2.5227e+00	7.6969e-01
2.8639e-01	2.5154e+00	7.5756e-01
2.8758e-01	2.5080e+00	7.4608e-01
2.8879e-01	2.5007e+00	7.3523e-01
2.9001e-01	2.4935e+00	7.2496e-01
2.9124e-01	2.4863e+00	7.1525e-01
2.9248e-01	2.4792e+00	7.0607e-01
2.9373e-01	2.4722e+00	6.9739e-01
2.9499e-01	2.4653e+00	6.8918e-01
2.9626e-01	2.4586e+00	6.8142e-01
2.9754e-01	2.4521e+00	6.7408e-01
2.9884e-01	2.4457e+00	6.6713e-01
3.0014e-01	2.4395e+00	6.6055e-01
3.0146e-01	2.4334e+00	6.5432e-01
3.0279e-01	2.4275e+00	6.4841e-01
3.0412e-01	2.4218e+00	6.4282e-01
3.0548e-01	2.4163e+00	6.3751e-01
3.0684e-01	2.4110e+00	6.3248e-01
3.0822e-01	2.4059e+00	6.2770e-01
3.0960e-01	2.4010e+00	6.2316e-01
3.1100e-01	2.3962e+00	6.1884e-01
3.1242e-01	2.3917e+00	6.1473e-01
3.1384e-01	2.3873e+00	6.1081e-01
3.1528e-01	2.3832e+00	6.0708e-01
3.1674e-01	2.3792e+00	6.0352e-01
3.1820e-01	2.3754e+00	6.0011e-01
3.1968e-01	2.3718e+00	5.9686e-01
3.2118e-01	2.3684e+00	5.9374e-01
3.2268e-01	2.3651e+00	5.9074e-01
3.2421e-01	2.3621e+00	5.8786e-01
3.2574e-01	2.3592e+00	5.8510e-01
3.2729e-01	2.3565e+00	5.8243e-01
3.2886e-01	2.3539e+00	5.7985e-01
3.3044e-01	2.3516e+00	5.7736e-01
3.3204e-01	2.3494e+00	5.7494e-01
3.3365e-01	2.3474e+00	5.7259e-01
3.3527e-01	2.3455e+00	5.7030e-01
3.3692e-01	2.3439e+00	5.6807e-01
3.3858e-01	2.3423e+00	5.6588e-01
3.4025e-01	2.3410e+00	5.6374e-01
3.4195e-01	2.3398e+00	5.6163e-01
3.4365e-01	2.3387e+00	5.5956e-01
3.4538e-01	2.3378e+00	5.5750e-01
3.4713e-01	2.3371e+00	5.5547e-01
3.4889e-01	2.3365e+00	5.5345e-01
3.5067e-01	2.3361e+00	5.5143e-01
3.5246e-01	2.3358e+00	5.4942e-01
3.5428e-01	2.3356e+00	5.4740e-01
3.5612e-01	2.3356e+00	5.4538e-01
3.5797e-01	2.3358e+00	5.4334e-01
3.5984e-01	2.3360e+00	5.4129e-01
3.6174e-01	2.3364e+00	5.3921e-01
3.6365e-01	2.3370e+00	5.3710e-01
3.6559e-01	2.3377e+00	5.3495e-01
3.6754e-01	2.3385e+00	5.3277e-01
3.6952e-01	2.3394e+00	5.3054e-01
3.7151e-01	2.3405e+00	5.2826e-01
3.7353e-01	2.3417e+00	5.2593e-01
3.7557e-01	2.3430e+00	5.2354e-01
3.7764e-01	2.3444e+00	5.2108e-01
3.7972e-01	2.3460e+00	5.1855e-01
3.8183e-01	2.3477e+00	5.1594e-01
3.8396e-01	2.3494e+00	5.1324e-01
3.8612e-01	2.3513e+00	5.1046e-01
3.8830e-01	2.3534e+00	5.0758e-01
3.9051e-01	2.3555e+00	5.0460e-01
3.9274e-01	2.3577e+00	5.0151e-01
3.9500e-01	2.3600e+00	4.9831e-01
3.9728e-01	2.3624e+00	4.9498e-01
3.9959e-01	2.3649e+00	4.9152e-01
4.0192e-01	2.3675e+00	4.8792e-01
4.0429e-01	2.3702e+00	4.8418e-01
4.0668e-01	2.3729e+00	4.8028e-01
4.0910e-01	2.3757e+00	4.7622e-01
4.1155e-01	2.3786e+00	4.7199e-01
4.1403e-01	2.3815e+00	4.6757e-01
4.1654e-01	2.3845e+00	4.6297e-01
4.1908e-01	2.3875e+00	4.5816e-01
4.2165e-01	2.3905e+00	4.5314e-01
4.2425e-01	2.3935e+00	4.4790e-01
4.2688e-01	2.3965e+00	4.4243e-01
4.2955e-01	2.3995e+00	4.3671e-01
4.3225e-01	2.4024e+00	4.3073e-01
4.3499e-01	2.4053e+00	4.2449e-01
4.3776e-01	2.4080e+00	4.1797e-01
4.4056e-01	2.4106e+00	4.1117e-01
4.4340e-01	2.4130e+00	4.0408e-01
4.4628e-01	2.4151e+00	3.9669e-01
4.4920e-01	2.4169e+00	3.8903e-01
4.5215e-01	2.4183e+00	3.8109e-01
4.5515e-01	2.4192e+00	3.7291e-01
4.5818e-01	2.4195e+00	3.6456e-01
4.6125e-01	2.4190e+00	3.5613e-01
4.6437e-01	2.4175e+00	3.4780e-01
4.6753e-01	2.4148e+00	3.3984e-01
4.7073e-01	2.4106e+00	3.3272e-01
4.7398e-01	2.4049e+00	3.2722e-01
4.7727e-01	2.3977e+00	3.2460e-01
4.8060e-01	2.3899e+00	3.2667e-01
4.8399e-01	2.3847e+00	3.3512e-01
4.8742e-01	2.3872e+00	3.4868e-01
4.9090e-01	2.3995e+00	3.6051e-01
4.9443e-01	2.4153e+00	3.6760e-01
4.9801e-01	2.4352e+00	3.7746e-01
5.0165e-01	2.4734e+00	3.8552e-01
5.0533e-01	2.5278e+00	3.6758e-01
5.0908e-01	2.5687e+00	3.1595e-01
5.1287e-01	2.5783e+00	2.5387e-01
5.1673e-01	2.5651e+00	2.0189e-01
5.2064e-01	2.5425e+00	1.6411e-01
5.2462e-01	2.5180e+00	1.3753e-01
5.2865e-01	2.4945e+00	1.1862e-01
5.3275e-01	2.4730e+00	1.0481e-01
5.3691e-01	2.4534e+00	9.4412e-02
5.4114e-01	2.4357e+00	8.6367e-02
5.4543e-01	2.4197e+00	7.9980e-02
5.4979e-01	2.4050e+00	7.4793e-02
5.5422e-01	2.3915e+00	7.0496e-02
5.5873e-01	2.3790e+00	6.6874e-02
5.6331e-01	2.3675e+00	6.3775e-02
5.6796e-01	2.3567e+00	6.1086e-02
5.7269e-01	2.3465e+00	5.8727e-02
5.7750e-01	2.3370e+00	5.6634e-02
5.8240e-01	2.3280e+00	5.4760e-02
5.8737e-01	2.3195e+00	5.3068e-02
5.9244e-01	2.3113e+00	5.1530e-02
5.9759e-01	2.3036e+00	5.0121e-02
6.0283e-01	2.2962e+00	4.8824e-02
6.0816e-01	2.2892e+00	4.7623e-02
6.1359e-01	2.2824e+00	4.6505e-02
6.1911e-01	2.2759e+00	4.5460e-02
6.2474e-01	2.2697e+00	4.4479e-02
6.3047e-01	2.2636e+00	4.3556e-02
6.3631e-01	2.2578e+00	4.2683e-02
6.4225e-01	2.2522e+00	4.1856e-02
6.4831e-01	2.2468e+00	4.1070e-02
6.5448e-01	2.2415e+00	4.0320e-02
6.6077e-01	2.2364e+00	3.9605e-02
6.6719e-01	2.2315e+00	3.8920e-02
6.7372e-01	2.2267e+00	3.8263e-02
6.8039e-01	2.2220e+00	3.7632e-02
6.8719e-01	2.2175e+00	3.7025e-02
6.9413e-01	2.2131e+00	3.6440e-02
7.0121e-01	2.2088e+00	3.5875e-02
7.0844e-01	2.2046e+00	3.5328e-02
7.1582e-01	2.2005e+00	3.4800e-02
7.2335e-01	2.1965e+00	3.4287e-02
7.3104e-01	2.1926e+00	3.3791e-02
7.3890e-01	2.1888e+00	3.3308e-02
7.4693e-01	2.1851e+00	3.2839e-02
7.5513e-01	2.1815e+00	3.2383e-02
7.6352e-01	2.1780e+00	3.1939e-02
7.7210e-01	2.1745e+00	3.1506e-02
7.8087e-01	2.1711e+00	3.1085e-02
7.8984e-01	2.1678e+00	3.0673e-02
7.9902e-01	2.1646e+00	3.0271e-02
8.0842e-01	2.1614e+00	2.9878e-02
8.1804e-01	2.1583e+00	2.9494e-02
8.2789e-01	2.1553e+00	2.9119e-02
8.3798e-01	2.1523e+00	2.8751e-02
8.4832e-01	2.1494e+00	2.8391e-02
8.5892e-01	2.1465e+00	2.8039e-02
8.6979e-01	2.1437e+00	2.7693e-02
8.8094e-01	2.1410e+00	2.7355e-02
8.9237e-01	2.1383e+00	2.7022e-02
9.0411e-01	2.1356e+00	2.6696e-02
9.1616e-01	2.1330e+00	2.6376e-02
9.2853e-01	2.1305e+00	2.6062e-02
9.4125e-01	2.1280e+00	2.5753e-02
9.5431e-01	2.1255e+00	2.5450e-02
9.6775e-01	2.1231e+00	2.5151e-02
9.8157e-01	2.1207e+00	2.4858e-02
9.9578e-01	2.1184e+00	2.4570e-02
1.0104e+00	2.1161e+00	2.4286e-02
1.0255e+00	2.1139e+00	2.4006e-02
