Material: main / CdS / Treharne
Optical constants. R. E. Treharne, A. Seymour-Pierce, K. Durose, K. Hutchings, S. Roncallo, D. Lane, Optical design and fabrication of fully sputtered CdTe/CdS solar cells, J. Phys: Conf. Ser. 286, 012038, (2011) (Numerical data kindly provided Dr. Robert Treharne)
Comments: A CdS film was deposited on to a soda-lime glass substrate using RF magnetron sputtering. A variable-angle ellipsometer was used to take amplitude and phase change measurements. The refractive index and extinction coefficient was extracted from a multi-oscillator model fit to the ellipsometry data, as a function of wavelength, from 300 to 1500 nm
wavelength (um)	n	k
0.30141754	2.61555	0.38666
0.30461	2.60483	0.38591
0.30780255	2.59505	0.38504
0.31099524	2.58612	0.38406
0.31418805	2.57796	0.38299
0.31738095	2.5705	0.38184
0.32057397	2.56368	0.38061
0.32376712	2.55743	0.37932
0.32696036	2.55173	0.37796
0.3301537	2.54651	0.37656
0.3333471	2.54174	0.37511
0.33654065	2.5374	0.37361
0.33973428	2.53344	0.37208
0.34292798	2.52984	0.37052
0.34612177	2.52658	0.36892
0.34931567	2.52364	0.3673
0.3525096	2.52099	0.36566
0.35570367	2.51863	0.364
0.35889777	2.51653	0.36232
0.36209198	2.51467	0.36062
0.3652862	2.51306	0.35891
0.36848053	2.51167	0.35719
0.3716749	2.5105	0.35546
0.37486932	2.50954	0.35372
0.37806384	2.50878	0.35197
0.38125836	2.50821	0.35022
0.38445297	2.50784	0.34845
0.38764764	2.50765	0.34669
0.39084235	2.50764	0.34492
0.39403705	2.50781	0.34314
0.39723184	2.50815	0.34136
0.40042664	2.50868	0.33957
0.4036215	2.50938	0.33778
0.40681635	2.51025	0.33599
0.41001123	2.51131	0.33419
0.4132062	2.51255	0.33239
0.41640112	2.51398	0.33059
0.4195961	2.5156	0.32878
0.42279108	2.51742	0.32696
0.42598602	2.51945	0.32513
0.42918106	2.52171	0.3233
0.43237607	2.5242	0.32146
0.43557104	2.52694	0.3196
0.43876605	2.52995	0.31773
0.4419611	2.53326	0.31585
0.4451561	2.53691	0.31394
0.44835107	2.54092	0.31201
0.45154605	2.54536	0.31004
0.45474103	2.55029	0.30803
0.45793597	2.55581	0.30594
0.46113092	2.56204	0.30373
0.46432584	2.56913	0.30129
0.4675207	2.57726	0.29846
0.47071558	2.5866	0.29495
0.4739104	2.59727	0.29035
0.47710516	2.60924	0.28413
0.4802999	2.62229	0.27566
0.48349463	2.6359	0.26434
0.4866893	2.6493	0.24971
0.48988388	2.66146	0.2316
0.49307846	2.67129	0.21025
0.496273	2.67778	0.18628
0.49946744	2.68018	0.16068
0.50266187	2.67815	0.13466
0.5058562	2.67176	0.10945
0.50905048	2.66152	0.08617
0.5122447	2.64823	0.06564
0.51543884	2.63284	0.04834
0.51863293	2.61635	0.03441
0.52182684	2.59961	0.02367
0.5250208	2.58332	0.01573
0.5282146	2.56793	0.0101
0.5314083	2.55372	0.00628
0.534602	2.54076	0.00377
0.53779553	2.52904	0.0022
0.5409891	2.51844	0.00124
0.54418243	2.50885	0.00068
0.5473757	2.50012	0.000362
0.5505689	2.49212	0.000187
0.5537619	2.48475	0.000094
0.5569549	2.4779	0.0000461
0.56014777	2.47151	0.000022
0.56334045	2.46552	0.0000102
0.5665331	2.45986	0.00000466
0.5697256	2.45452	0.00000207
0.57291797	2.44944	0.0000009
0.5761102	2.44461	0.000000383
0.5793023	2.44	0.00000016
0.58249426	2.4356	6.53E-008
0.58568616	2.43138	2.62E-008
0.5888778	2.42733	1.03E-008
0.59206946	2.42344	0.000000004
0.59526086	2.4197	1.52E-009
0.59845215	2.4161	5.67E-010
0.60164325	2.41262	2.09E-010
0.6048342	2.40927	7.59E-011
0.608025	2.40603	2.72E-011
0.6112157	2.40289	9.58E-012
0.6144062	2.39986	3.34E-012
0.61759656	2.39692	1.15E-012
0.62078674	2.39408	3.9E-013
0.6239767	2.39131	1.31E-013
0.62716656	2.38863	4.33E-014
0.6303562	2.38603	1.4E-014
0.63354565	2.3835	4.39E-015
0.6367349	2.38104	1.24E-015
0.639924	2.37865	2.32E-016
0.6431129	2.37632	1.82E-017
0.64630164	2.37405	2.37E-018
0.6494902	2.37185	-6.14E-019
0.6526785	2.36969	1.64E-017
0.65586664	2.3676	8.82E-023
0.65905457	2.36555	1.63E-017
0.6622423	2.36356	-1.63E-017
0.6654298	2.36161	0
0.66861707	2.35971	5.47E-019
0.6718042	2.35785	-1.62E-017
0.6749911	2.35604	2.21E-021
0.67817773	2.35427	5.63E-024
0.68136414	2.35254	-1.19E-026
0.68455035	2.35084	5.53E-019
0.68773627	2.34919	5.54E-019
0.690922	2.34757	-1.6E-017
0.69410754	2.34599	2.23E-021
0.6972928	2.34444	2.23E-021
0.70047784	2.34292	5.59E-019
0.7036626	2.34143	-1.13E-023
0.7068471	2.33998	5.69E-024
0.7100314	2.33855	1.52E-017
0.71321545	2.33716	5.61E-019
0.71639923	2.33579	-1.57E-017
0.7195827	2.33445	1.56E-017
0.722766	2.33313	-5.66E-019
0.7259489	2.33185	2.25E-021
0.72913165	2.33058	-5.71E-024
0.7323141	2.32934	-1.55E-017
0.7354963	2.32813	2.25E-021
0.73867816	2.32694	-2.26E-021
0.74185974	2.32577	-1.54E-017
0.74504114	2.32462	1.53E-017
0.74822217	2.32349	1.53E-017
0.75140295	2.32239	2.27E-021
0.7545834	2.3213	0
0.75776355	2.32024	-1.52E-017
0.7609435	2.31919	5.76E-024
0.764123	2.31816	0
0.7673023	2.31715	2.28E-021
0.77048126	2.31616	-2.28E-021
0.7736599	2.31519	-2.29E-021
0.77683826	2.31423	1.5E-017
0.7800163	2.31329	-5.79E-024
0.783194	2.31236	-2.29E-021
0.7863714	2.31146	-1.21E-026
0.78954846	2.31056	0
0.7927252	2.30969	-1.48E-017
0.7959016	2.30882	1.48E-017
0.7990777	2.30797	5.8E-024
0.8022534	2.30714	1.47E-017
0.80542883	2.30632	5.9E-019
0.8086039	2.30551	-2.31E-021
0.8117786	2.30472	2.32E-021
0.814953	2.30394	5.83E-024
0.818127	2.30317	-1.46E-017
0.82130066	2.30241	5.91E-019
0.824474	2.30167	-1.45E-017
0.827647	2.30094	2.89E-017
0.8308195	2.30021	-1.44E-017
0.8339918	2.29951	0
0.8371636	2.29881	-5.85E-024
0.8403351	2.29812	-1.43E-017
0.8435062	2.29745	-1.49E-017
0.84667694	2.29678	1.49E-017
0.8498473	2.29613	0
0.8530173	2.29548	5.85E-024
0.8561868	2.29485	5.86E-024
0.8593561	2.29422	-2.34E-021
0.8625249	2.2936	-2.34E-021
0.86569324	2.293	-1.41E-017
0.8688613	2.2924	-1.47E-017
0.87202893	2.29181	-5.88E-024
0.8751961	2.29123	1.4E-017
0.8783629	2.29066	1.4E-017
0.8815293	2.2901	-2.85E-017
0.8846953	2.28955	6.05E-019
0.88786084	2.289	1.39E-017
0.891026	2.28847	0
0.89419073	2.28794	5.89E-024
0.8973551	2.28741	1.44E-017
0.9005189	2.2869	-1.38E-017
0.9036823	2.28639	1.23E-026
0.9068454	2.2859	-1.37E-017
0.91000793	2.2854	0
0.9131701	2.28492	-2.36E-021
0.9163317	2.28444	0
0.91949304	2.28397	0
0.9226538	2.28351	-1.36E-017
0.92581415	2.28305	0
0.9289741	2.2826	-5.93E-024
0.9321335	2.28216	-1.35E-017
0.9352925	2.28172	-6.15E-019
0.93845105	2.28129	0
0.9416091	2.28086	-1.23E-026
0.9447667	2.28044	-1.34E-017
0.9479238	2.28003	-5.94E-024
0.95108044	2.27962	1.34E-017
0.95423663	2.27922	-1.33E-017
0.9573923	2.27883	-6.19E-019
0.9605475	2.27844	1.33E-017
0.9637023	2.27805	-2.38E-021
0.96685645	2.27767	-1.32E-017
0.97001013	2.2773	-1.26E-017
0.9731634	2.27693	-2.38E-021
0.9763161	2.27657	6.22E-019
0.9794684	2.27621	-5.96E-024
0.9826201	2.27586	-6.25E-019
0.98577136	2.27551	6.28E-019
0.98892206	2.27516	1.31E-017
0.99207227	2.27482	-2.39E-021
0.995222	2.27449	1.36E-017
0.9983712	2.27416	1.3E-017
1.01169275	2.27282	1.29E-017
1.01853125	2.27216	2.4E-021
1.0253698	2.27152	5.99E-024
1.0322083	2.2709	-1.27E-017
1.0390466	2.2703	-1.33E-017
1.0458853	2.26971	-6E-024
1.0527238	2.26914	6E-024
1.0595623	2.26859	1.25E-017
1.066401	2.26806	-1.25E-017
1.0732396	2.26754	-2.41E-021
1.0800784	2.26704	-1.24E-017
1.0869172	2.26655	6.03E-024
1.0937562	2.26608	-1.23E-017
1.1005955	2.26562	1.23E-017
1.1074347	2.26517	-6.04E-024
1.114274	2.26474	0
1.1211135	2.26433	1.21E-017
1.1279534	2.26392	-6.43E-019
1.1347932	2.26353	0
1.1416334	2.26315	-1.2E-017
1.1484738	2.26278	-1.26E-017
1.1553143	2.26242	6.04E-024
1.1621552	2.26208	1.19E-017
1.1689963	2.26175	-2.44E-021
1.1758376	2.26142	1.18E-017
1.1826793	2.26111	-6.07E-024
1.1895212	2.26081	2.44E-021
1.1963635	2.26052	0
1.203206	2.26023	-6.51E-019
1.2100491	2.25996	1.16E-017
1.2168923	2.2597	2.46E-021
1.223736	2.25944	-1.15E-017
1.23058	2.2592	-1.15E-017
1.2374244	2.25896	1.15E-017
1.2442693	2.25874	1.21E-017
1.2511145	2.25852	-1.14E-017
1.2579602	2.25831	6.58E-019
1.2648064	2.2581	6.09E-024
1.271653	2.25791	2.46E-021
1.2785	2.25772	6.58E-019
1.2853475	2.25754	1.12E-017
1.2921956	2.25737	-1.22E-023
1.2990442	2.25721	-1.18E-017
1.3058933	2.25705	-2.47E-021
1.3127429	2.2569	1.11E-017
1.3195931	2.25676	2.47E-021
1.326444	2.25662	6.64E-019
1.3332953	2.25649	-1.22E-023
1.3401472	2.25637	6.68E-019
1.3469999	2.25625	-6.66E-019
1.353853	2.25614	6.64E-019
1.3607068	2.25603	-1.15E-017
1.3675613	2.25594	-1.08E-017
1.3744165	2.25584	-6.65E-019
1.3812723	2.25576	-2.49E-021
1.3881289	2.25568	-6.13E-024
1.3949861	2.2556	-1.07E-017
1.401844	2.25553	-1.13E-017
1.4087028	2.25547	-1.06E-017
1.4155621	2.25541	1.06E-017
1.4224222	2.25535	-1.06E-017
1.4292832	2.2553	-1.12E-017
1.436145	2.25526	0
1.4430076	2.25522	-6.13E-024
1.4498708	2.25519	-1.05E-017
1.4567351	2.25516	-2.5E-021
1.4636001	2.25514	-6.13E-024
1.470466	2.25512	-6.12E-024
1.4773328	2.2551	1.03E-017
1.4842003	2.25509	2.49E-021
1.4910688	2.25509	-1.03E-017
1.4979382	2.25509	6.13E-024
