Material: main / TiO2 / Kischkat
Optical constants. J. Kischkat, S. Peters, B. Gruska, M. Semtsiv, M. Chashnikova, M. Klinkm√ºller, O. Fedosenko, S. Machulik, A. Aleksandrova, G. Monastyrskyi, Y. Flores, and W. T. Masselink. Mid-infrared optical properties of thin films of aluminum oxide, titanium dioxide, silicon dioxide, aluminum nitride, and silicon nitride, Appl. Opt. 51, 6789-6798 (2012) (Numerical data kindly provided by Jan Kischkat)
Comments: 352-nm single layer on Si substrate. Prepared by room temperature reactive sputter deposition using TiO2 target.Data on the influence of deposition conditions on the optical properties of the film can be found in the original publication.Data on the refractive index (n) in the visible can be found in the original publication.
wavelength (um)	n	k
1.53846	2.43346	0.00010
1.54226	2.43323	0.00010
1.54607	2.43300	0.00010
1.54991	2.43277	0.00010
1.55376	2.43255	0.00010
1.55763	2.43232	0.00010
1.56152	2.43209	0.00010
1.56544	2.43187	0.00010
1.56937	2.43164	0.00010
1.57332	2.43141	0.00010
1.57729	2.43119	0.00010
1.58128	2.43096	0.00010
1.58529	2.43073	0.00010
1.58932	2.43051	0.00010
1.59337	2.43028	0.00010
1.59744	2.43005	0.00010
1.60154	2.42983	0.00010
1.60565	2.42960	0.00010
1.60979	2.42937	0.00011
1.61394	2.42915	0.00011
1.61812	2.42892	0.00011
1.62232	2.42869	0.00011
1.62655	2.42846	0.00011
1.63079	2.42824	0.00011
1.63506	2.42801	0.00011
1.63934	2.42778	0.00011
1.64366	2.42755	0.00011
1.64799	2.42733	0.00011
1.65235	2.42710	0.00011
1.65673	2.42687	0.00011
1.66113	2.42664	0.00011
1.66556	2.42641	0.00011
1.67001	2.42618	0.00011
1.67448	2.42595	0.00011
1.67898	2.42572	0.00011
1.68350	2.42549	0.00011
1.68805	2.42526	0.00012
1.69262	2.42503	0.00012
1.69722	2.42480	0.00012
1.70184	2.42457	0.00012
1.70648	2.42434	0.00012
1.71116	2.42411	0.00012
1.71585	2.42388	0.00012
1.72058	2.42365	0.00012
1.72533	2.42341	0.00012
1.73010	2.42318	0.00012
1.73491	2.42295	0.00012
1.73974	2.42271	0.00012
1.74459	2.42248	0.00012
1.74948	2.42224	0.00012
1.75439	2.42201	0.00013
1.75932	2.42177	0.00013
1.76429	2.42154	0.00013
1.76929	2.42130	0.00013
1.77431	2.42106	0.00013
1.77936	2.42083	0.00013
1.78444	2.42059	0.00013
1.78955	2.42035	0.00013
1.79469	2.42011	0.00013
1.79986	2.41987	0.00013
1.80505	2.41963	0.00013
1.81028	2.41939	0.00013
1.81554	2.41915	0.00014
1.82083	2.41890	0.00014
1.82615	2.41866	0.00014
1.83150	2.41842	0.00014
1.83688	2.41817	0.00014
1.84230	2.41793	0.00014
1.84775	2.41768	0.00014
1.85322	2.41743	0.00014
1.85874	2.41718	0.00014
1.86428	2.41694	0.00014
1.86986	2.41669	0.00014
1.87547	2.41644	0.00015
1.88111	2.41618	0.00015
1.88679	2.41593	0.00015
1.89251	2.41568	0.00015
1.89825	2.41543	0.00015
1.90404	2.41517	0.00015
1.90985	2.41492	0.00015
1.91571	2.41466	0.00015
1.92160	2.41440	0.00015
1.92753	2.41414	0.00016
1.93349	2.41388	0.00016
1.93949	2.41362	0.00016
1.94553	2.41336	0.00016
1.95160	2.41310	0.00016
1.95771	2.41283	0.00016
1.96386	2.41257	0.00016
1.97006	2.41230	0.00016
1.97628	2.41203	0.00017
1.98255	2.41176	0.00017
1.98886	2.41149	0.00017
1.99521	2.41122	0.00017
2.00160	2.41095	0.00017
2.00803	2.41067	0.00017
2.01450	2.41040	0.00017
2.02102	2.41012	0.00018
2.02758	2.40984	0.00018
2.03417	2.40956	0.00018
2.04082	2.40928	0.00018
2.04750	2.40900	0.00018
2.05423	2.40872	0.00018
2.06101	2.40843	0.00018
2.06782	2.40814	0.00019
2.07469	2.40785	0.00019
2.08160	2.40756	0.00019
2.08855	2.40727	0.00019
2.09556	2.40698	0.00019
2.10261	2.40668	0.00019
2.10970	2.40638	0.00020
2.11685	2.40608	0.00020
2.12404	2.40578	0.00020
2.13129	2.40548	0.00020
2.13858	2.40518	0.00020
2.14592	2.40487	0.00020
2.15332	2.40456	0.00021
2.16076	2.40425	0.00021
2.16826	2.40394	0.00021
2.17581	2.40362	0.00021
2.18341	2.40331	0.00021
2.19106	2.40299	0.00022
2.19877	2.40267	0.00022
2.20653	2.40234	0.00022
2.21435	2.40202	0.00022
2.22222	2.40169	0.00022
2.23015	2.40136	0.00023
2.23814	2.40103	0.00023
2.24618	2.40069	0.00023
2.25428	2.40035	0.00023
2.26244	2.40001	0.00024
2.27066	2.39967	0.00024
2.27894	2.39933	0.00024
2.28728	2.39898	0.00024
2.29568	2.39863	0.00025
2.30415	2.39827	0.00025
2.31267	2.39792	0.00025
2.32126	2.39756	0.00025
2.32992	2.39720	0.00026
2.33863	2.39683	0.00026
2.34742	2.39647	0.00026
2.35627	2.39609	0.00026
2.36518	2.39572	0.00027
2.37417	2.39534	0.00027
2.38322	2.39496	0.00027
2.39234	2.39458	0.00028
2.40154	2.39419	0.00028
2.41080	2.39380	0.00028
2.42014	2.39341	0.00029
2.42954	2.39301	0.00029
2.43902	2.39261	0.00029
2.44858	2.39221	0.00029
2.45821	2.39180	0.00030
2.46792	2.39139	0.00030
2.47770	2.39097	0.00030
2.48756	2.39055	0.00031
2.49750	2.39013	0.00031
2.50752	2.38970	0.00032
2.51762	2.38927	0.00032
2.52781	2.38883	0.00032
2.53807	2.38839	0.00033
2.54842	2.38795	0.00033
2.55885	2.38750	0.00033
2.56937	2.38704	0.00034
2.57998	2.38658	0.00034
2.59067	2.38612	0.00035
2.60146	2.38565	0.00035
2.61233	2.38518	0.00036
2.62329	2.38470	0.00036
2.63435	2.38422	0.00036
2.64550	2.38373	0.00037
2.65675	2.38324	0.00037
2.66809	2.38274	0.00038
2.67953	2.38223	0.00038
2.69107	2.38172	0.00039
2.70270	2.38121	0.00039
2.71444	2.38069	0.00040
2.72628	2.38016	0.00040
2.73823	2.37963	0.00041
2.75028	2.37909	0.00041
2.76243	2.37854	0.00042
2.77469	2.37799	0.00043
2.78707	2.37743	0.00043
2.79955	2.37687	0.00044
2.81215	2.37629	0.00044
2.82486	2.37571	0.00045
2.83768	2.37513	0.00046
2.85063	2.37454	0.00046
2.86369	2.37393	0.00047
2.87687	2.37333	0.00048
2.89017	2.37271	0.00048
2.90360	2.37209	0.00049
2.91715	2.37146	0.00050
2.93083	2.37082	0.00050
2.94464	2.37017	0.00051
2.95858	2.36951	0.00052
2.97265	2.36885	0.00053
2.98686	2.36817	0.00053
3.00120	2.36749	0.00054
3.01568	2.36680	0.00055
3.03030	2.36610	0.00056
3.04507	2.36539	0.00057
3.05998	2.36467	0.00058
3.07503	2.36393	0.00058
3.09023	2.36319	0.00059
3.10559	2.36244	0.00060
3.12110	2.36168	0.00061
3.13676	2.36091	0.00062
3.15259	2.36012	0.00063
3.16857	2.35933	0.00064
3.18471	2.35852	0.00065
3.20102	2.35770	0.00066
3.21750	2.35687	0.00067
3.23415	2.35603	0.00069
3.25098	2.35517	0.00070
3.26797	2.35430	0.00071
3.28515	2.35342	0.00072
3.30251	2.35252	0.00073
3.32005	2.35161	0.00075
3.33778	2.35069	0.00076
3.35570	2.34975	0.00077
3.37382	2.34879	0.00079
3.39213	2.34783	0.00080
3.41064	2.34684	0.00082
3.42936	2.34584	0.00083
3.44828	2.34482	0.00085
3.46741	2.34379	0.00086
3.48675	2.34274	0.00088
3.50631	2.34167	0.00089
3.52609	2.34058	0.00091
3.54610	2.33948	0.00093
3.56633	2.33835	0.00094
3.58680	2.33721	0.00096
3.60750	2.33604	0.00098
3.62845	2.33486	0.00100
3.64964	2.33366	0.00102
3.67107	2.33243	0.00104
3.69276	2.33118	0.00106
3.71471	2.32991	0.00108
3.73692	2.32861	0.00111
3.75940	2.32730	0.00113
3.78215	2.32595	0.00115
3.80518	2.32459	0.00118
3.82848	2.32319	0.00120
3.85208	2.32177	0.00123
3.87597	2.32032	0.00126
3.90016	2.31885	0.00128
3.92465	2.31735	0.00131
3.94945	2.31581	0.00134
3.97456	2.31425	0.00137
4.00000	2.31265	0.00140
4.02576	2.31103	0.00143
4.05186	2.30937	0.00147
4.07830	2.30767	0.00150
4.10509	2.30594	0.00154
4.13223	2.30418	0.00157
4.15973	2.30238	0.00161
4.18760	2.30053	0.00165
4.21585	2.29866	0.00169
4.24448	2.29674	0.00173
4.27350	2.29477	0.00178
4.30293	2.29277	0.00182
4.33276	2.29072	0.00187
4.36300	2.28862	0.00192
4.39367	2.28648	0.00197
4.42478	2.28429	0.00202
4.45633	2.28205	0.00207
4.48833	2.27976	0.00213
4.52080	2.27741	0.00219
4.55373	2.27501	0.00225
4.58716	2.27255	0.00231
4.62107	2.27003	0.00238
4.65549	2.26745	0.00245
4.69043	2.26481	0.00252
4.72590	2.26210	0.00259
4.76190	2.25933	0.00267
4.79846	2.25648	0.00275
4.83559	2.25357	0.00283
4.87329	2.25057	0.00292
4.91159	2.24750	0.00301
4.95050	2.24435	0.00311
4.99002	2.24112	0.00321
5.03018	2.23780	0.00331
5.07099	2.23438	0.00342
5.11247	2.23088	0.00354
5.15464	2.22728	0.00366
5.19751	2.22358	0.00379
5.24109	2.21977	0.00392
5.28541	2.21585	0.00406
5.33049	2.21182	0.00420
5.37634	2.20767	0.00436
5.42299	2.20340	0.00452
5.47046	2.19900	0.00469
5.51876	2.19447	0.00487
5.56793	2.18980	0.00506
5.61798	2.18498	0.00526
5.66893	2.18002	0.00547
5.72082	2.17489	0.00569
5.77367	2.16960	0.00593
5.82751	2.16414	0.00618
5.88235	2.15849	0.00645
5.93824	2.15266	0.00673
5.99520	2.14662	0.00703
6.05327	2.14038	0.00734
6.11247	2.13393	0.00768
6.17284	2.12724	0.00804
6.23441	2.12031	0.00843
6.29723	2.11313	0.00884
6.36132	2.10569	0.00927
6.42674	2.09796	0.00974
6.49351	2.08995	0.01025
6.56168	2.08162	0.01078
6.63130	2.07296	0.01136
6.70241	2.06396	0.01199
6.77507	2.05459	0.01265
6.84932	2.04484	0.01338
6.92521	2.03467	0.01416
7.00280	2.02408	0.01500
7.08215	2.01302	0.01591
7.16332	2.00147	0.01690
7.24638	1.98940	0.01798
7.33138	1.97678	0.01915
7.41840	1.96357	0.02043
7.50751	1.94972	0.02182
7.59878	1.93521	0.02335
7.69231	1.91997	0.02503
7.78816	1.90396	0.02687
7.88644	1.88712	0.02889
7.98722	1.86938	0.03113
8.09061	1.85069	0.03361
8.19672	1.83096	0.03636
8.30565	1.81011	0.03941
8.41751	1.78804	0.04282
8.53242	1.76466	0.04663
8.65052	1.73986	0.05091
8.77193	1.71349	0.05573
8.89680	1.68542	0.06118
9.02527	1.65549	0.06736
9.15751	1.62351	0.07441
9.29368	1.58928	0.08247
9.43396	1.55258	0.09176
9.57854	1.51313	0.10250
9.72763	1.47065	0.11500
9.88142	1.42480	0.12967
10.04016	1.37522	0.14701
10.20408	1.32150	0.16770
10.37344	1.26324	0.19263
10.54852	1.20007	0.22302
10.72961	1.13177	0.26052
10.91703	1.05851	0.30737
11.11111	0.98133	0.36642
11.31222	0.90289	0.44079
11.52074	0.82810	0.53266
11.73709	0.76340	0.64122
11.96172	0.71391	0.76178
12.19512	0.68098	0.88814
12.43781	0.66286	1.01550
12.69036	0.65684	1.14130
12.95337	0.66045	1.26455
13.22751	0.67187	1.38506
13.51351	0.68980	1.50300
13.81215	0.71335	1.61863
14.12429	0.74188	1.73223
