Material: main / TiO2 / Sarkar
Optical constants. S. Sarkar, V. Gupta, M. Kumar, J. Schubert, P.T. Probst, J. Joseph, T.A.F. König, Hybridized guided-mode resonances via colloidal plasmonic self-assembled grating, ACS Appl. Mater. Interfaces, 11, 13752-13760 (2019)(Numerical data kindly provided by Dr. Tobias König)
Comments: Titanium(IV) oxide (Titanium dioxide, TiO2) thin film (thickness 200 nm) on glass substrate.
wavelength (um)	n	k
0.3000	2.809982	0.592784
0.3030	2.819065	0.547550
0.3060	2.824450	0.502151
0.3090	2.826151	0.457002
0.3120	2.824241	0.412513
0.3150	2.818847	0.369075
0.3180	2.810145	0.327054
0.3210	2.798357	0.286784
0.3240	2.783740	0.248560
0.3270	2.766583	0.212636
0.3300	2.747194	0.179225
0.3330	2.725897	0.148493
0.3360	2.703024	0.120570
0.3390	2.678910	0.095544
0.3420	2.653890	0.073466
0.3450	2.628298	0.054359
0.3480	2.602464	0.038216
0.3510	2.576720	0.025004
0.3540	2.551405	0.014672
0.3570	2.526875	0.007147
0.3600	2.503537	0.002345
0.3630	2.481942	0.000165
0.3660	2.463245	0.000000
0.3690	2.447081	0.000000
0.3720	2.432534	0.000000
0.3750	2.419242	0.000000
0.3780	2.406981	0.000000
0.3810	2.395594	0.000000
0.3840	2.384965	0.000000
0.3870	2.375001	0.000000
0.3900	2.365628	0.000000
0.3930	2.356783	0.000000
0.3960	2.348416	0.000000
0.3990	2.340482	0.000000
0.4020	2.332945	0.000000
0.4050	2.325770	0.000000
0.4080	2.318929	0.000000
0.4110	2.312397	0.000000
0.4140	2.306150	0.000000
0.4170	2.300170	0.000000
0.4200	2.294437	0.000000
0.4230	2.288936	0.000000
0.4260	2.283652	0.000000
0.4290	2.278570	0.000000
0.4320	2.273680	0.000000
0.4350	2.268969	0.000000
0.4380	2.264428	0.000000
0.4410	2.260048	0.000000
0.4440	2.255818	0.000000
0.4470	2.251733	0.000000
0.4500	2.247783	0.000000
0.4530	2.243962	0.000000
0.4560	2.240264	0.000000
0.4590	2.236683	0.000000
0.4620	2.233213	0.000000
0.4650	2.229850	0.000000
0.4680	2.226587	0.000000
0.4710	2.223421	0.000000
0.4740	2.220347	0.000000
0.4770	2.217362	0.000000
0.4800	2.214461	0.000000
0.4830	2.211642	0.000000
0.4860	2.208900	0.000000
0.4890	2.206232	0.000000
0.4920	2.203636	0.000000
0.4950	2.201109	0.000000
0.4980	2.198648	0.000000
0.5010	2.196251	0.000000
0.5040	2.193915	0.000000
0.5070	2.191637	0.000000
0.5100	2.189417	0.000000
0.5130	2.187251	0.000000
0.5160	2.185137	0.000000
0.5190	2.183075	0.000000
0.5220	2.181062	0.000000
0.5250	2.179096	0.000000
0.5280	2.177176	0.000000
0.5310	2.175300	0.000000
0.5340	2.173467	0.000000
0.5370	2.171675	0.000000
0.5400	2.169924	0.000000
0.5430	2.168211	0.000000
0.5460	2.166535	0.000000
0.5490	2.164896	0.000000
0.5520	2.163293	0.000000
0.5550	2.161723	0.000000
0.5580	2.160187	0.000000
0.5610	2.158682	0.000000
0.5640	2.157209	0.000000
0.5670	2.155766	0.000000
0.5700	2.154353	0.000000
0.5730	2.152968	0.000000
0.5760	2.151610	0.000000
0.5790	2.150280	0.000000
0.5820	2.148976	0.000000
0.5850	2.147697	0.000000
0.5880	2.146443	0.000000
0.5910	2.145213	0.000000
0.5940	2.144007	0.000000
0.5970	2.142823	0.000000
0.6000	2.141661	0.000000
0.6030	2.140521	0.000000
0.6060	2.139402	0.000000
0.6090	2.138304	0.000000
0.6120	2.137226	0.000000
0.6150	2.136167	0.000000
0.6180	2.135126	0.000000
0.6210	2.134105	0.000000
0.6240	2.133101	0.000000
0.6270	2.132115	0.000000
0.6300	2.131146	0.000000
0.6330	2.130194	0.000000
0.6360	2.129259	0.000000
0.6390	2.128339	0.000000
0.6420	2.127434	0.000000
0.6450	2.126545	0.000000
0.6480	2.125671	0.000000
0.6510	2.124811	0.000000
0.6540	2.123966	0.000000
0.6570	2.123134	0.000000
0.6600	2.122316	0.000000
0.6630	2.121511	0.000000
0.6660	2.120719	0.000000
0.6690	2.119939	0.000000
0.6720	2.119172	0.000000
0.6750	2.118417	0.000000
0.6780	2.117674	0.000000
0.6810	2.116942	0.000000
0.6840	2.116222	0.000000
0.6870	2.115513	0.000000
0.6900	2.114814	0.000000
0.6930	2.114126	0.000000
0.6960	2.113449	0.000000
0.6990	2.112782	0.000000
0.7020	2.112124	0.000000
0.7050	2.111477	0.000000
0.7080	2.110839	0.000000
0.7110	2.110210	0.000000
0.7140	2.109591	0.000000
0.7170	2.108980	0.000000
0.7200	2.108378	0.000000
0.7230	2.107785	0.000000
0.7260	2.107201	0.000000
0.7290	2.106624	0.000000
0.7320	2.106056	0.000000
0.7350	2.105496	0.000000
0.7380	2.104944	0.000000
0.7410	2.104399	0.000000
0.7440	2.103862	0.000000
0.7470	2.103332	0.000000
0.7500	2.102809	0.000000
0.7530	2.102293	0.000000
0.7560	2.101785	0.000000
0.7590	2.101283	0.000000
0.7620	2.100788	0.000000
0.7650	2.100300	0.000000
0.7680	2.099818	0.000000
0.7710	2.099343	0.000000
0.7740	2.098873	0.000000
0.7770	2.098410	0.000000
0.7800	2.097953	0.000000
0.7830	2.097502	0.000000
0.7860	2.097056	0.000000
0.7890	2.096616	0.000000
0.7920	2.096182	0.000000
0.7950	2.095754	0.000000
0.7980	2.095330	0.000000
0.8010	2.094913	0.000000
0.8040	2.094500	0.000000
0.8070	2.094092	0.000000
0.8100	2.093690	0.000000
0.8130	2.093292	0.000000
0.8160	2.092900	0.000000
0.8190	2.092512	0.000000
0.8220	2.092129	0.000000
0.8250	2.091750	0.000000
0.8280	2.091376	0.000000
0.8310	2.091007	0.000000
0.8340	2.090642	0.000000
0.8370	2.090281	0.000000
0.8400	2.089925	0.000000
0.8430	2.089572	0.000000
0.8460	2.089224	0.000000
0.8490	2.088880	0.000000
0.8520	2.088540	0.000000
0.8550	2.088204	0.000000
0.8580	2.087872	0.000000
0.8610	2.087544	0.000000
0.8640	2.087219	0.000000
0.8670	2.086898	0.000000
0.8700	2.086581	0.000000
0.8730	2.086267	0.000000
0.8760	2.085957	0.000000
0.8790	2.085650	0.000000
0.8820	2.085347	0.000000
0.8850	2.085047	0.000000
0.8880	2.084751	0.000000
0.8910	2.084457	0.000000
0.8940	2.084167	0.000000
0.8970	2.083880	0.000000
0.9000	2.083597	0.000000
0.9030	2.083316	0.000000
0.9060	2.083038	0.000000
0.9090	2.082764	0.000000
0.9120	2.082492	0.000000
0.9150	2.082223	0.000000
0.9180	2.081957	0.000000
0.9210	2.081694	0.000000
0.9240	2.081434	0.000000
0.9270	2.081176	0.000000
0.9300	2.080921	0.000000
0.9330	2.080669	0.000000
0.9360	2.080420	0.000000
0.9390	2.080172	0.000000
0.9420	2.079928	0.000000
0.9450	2.079686	0.000000
0.9480	2.079447	0.000000
0.9510	2.079210	0.000000
0.9540	2.078975	0.000000
0.9570	2.078743	0.000000
0.9600	2.078513	0.000000
0.9630	2.078285	0.000000
0.9660	2.078060	0.000000
0.9690	2.077837	0.000000
0.9720	2.077616	0.000000
0.9750	2.077397	0.000000
0.9780	2.077181	0.000000
0.9810	2.076967	0.000000
0.9840	2.076754	0.000000
0.9870	2.076544	0.000000
0.9900	2.076336	0.000000
0.9930	2.076130	0.000000
0.9960	2.075926	0.000000
0.9990	2.075724	0.000000
1.0050	2.075325	0.000000
1.0125	2.074838	0.000000
1.0200	2.074362	0.000000
1.0275	2.073897	0.000000
1.0350	2.073443	0.000000
1.0425	2.072999	0.000000
1.0500	2.072565	0.000000
1.0575	2.072141	0.000000
1.0650	2.071727	0.000000
1.0725	2.071322	0.000000
1.0800	2.070926	0.000000
1.0875	2.070538	0.000000
1.0950	2.070159	0.000000
1.1025	2.069788	0.000000
1.1100	2.069425	0.000000
1.1175	2.069069	0.000000
1.1250	2.068722	0.000000
1.1325	2.068381	0.000000
1.1400	2.068047	0.000000
1.1475	2.067721	0.000000
1.1550	2.067400	0.000000
1.1625	2.067087	0.000000
1.1700	2.066780	0.000000
1.1775	2.066479	0.000000
1.1850	2.066184	0.000000
1.1925	2.065894	0.000000
1.2000	2.065611	0.000000
1.2075	2.065333	0.000000
1.2150	2.065060	0.000000
1.2225	2.064793	0.000000
1.2300	2.064530	0.000000
1.2375	2.064273	0.000000
1.2450	2.064020	0.000000
1.2525	2.063772	0.000000
1.2600	2.063529	0.000000
1.2675	2.063291	0.000000
1.2750	2.063056	0.000000
1.2825	2.062826	0.000000
1.2900	2.062600	0.000000
1.2975	2.062378	0.000000
1.3050	2.062161	0.000000
1.3125	2.061947	0.000000
1.3200	2.061736	0.000000
1.3275	2.061530	0.000000
1.3350	2.061327	0.000000
1.3425	2.061128	0.000000
1.3500	2.060932	0.000000
1.3575	2.060739	0.000000
1.3650	2.060550	0.000000
1.3725	2.060364	0.000000
1.3800	2.060181	0.000000
1.3875	2.060001	0.000000
1.3950	2.059824	0.000000
1.4025	2.059650	0.000000
1.4100	2.059479	0.000000
1.4175	2.059310	0.000000
1.4250	2.059145	0.000000
1.4325	2.058982	0.000000
1.4400	2.058822	0.000000
1.4475	2.058664	0.000000
1.4550	2.058509	0.000000
1.4625	2.058356	0.000000
1.4700	2.058206	0.000000
1.4775	2.058058	0.000000
1.4850	2.057912	0.000000
1.4925	2.057769	0.000000
1.5000	2.057628	0.000000
1.5075	2.057489	0.000000
1.5150	2.057352	0.000000
1.5225	2.057217	0.000000
1.5300	2.057084	0.000000
1.5375	2.056953	0.000000
1.5450	2.056824	0.000000
1.5525	2.056697	0.000000
1.5600	2.056572	0.000000
1.5675	2.056449	0.000000
1.5750	2.056328	0.000000
1.5825	2.056208	0.000000
1.5900	2.056090	0.000000
1.5975	2.055974	0.000000
1.6050	2.055860	0.000000
1.6125	2.055747	0.000000
1.6200	2.055635	0.000000
1.6275	2.055526	0.000000
1.6350	2.055417	0.000000
1.6425	2.055311	0.000000
1.6500	2.055206	0.000000
1.6575	2.055102	0.000000
1.6650	2.055000	0.000000
1.6725	2.054899	0.000000
1.6800	2.054799	0.000000
1.6875	2.054701	0.000000
