Material: main / MoO3 / Lajaunie-beta
Optical constants. L. Lajaunie, F. Boucher, R. Dessapt, and P. Moreau. Strong anisotropic influence of local-field effects on the dielectric response of α-MoO3, Phys. Rev. B 88, 115141 (2013)(using numerical data made publicly available by Luc Lajaunie)
Comments: α-MoO3; nβ, kβ.
wavelength (um)	n	k
1.90745E-2	8.69705E-1	7.99122E-2
1.91334E-2	8.70327E-1	8.04295E-2
1.91926E-2	8.69757E-1	8.04822E-2
1.92522E-2	8.68564E-1	8.00172E-2
1.93122E-2	8.68315E-1	8.34950E-2
1.93725E-2	8.70649E-1	8.38455E-2
1.94333E-2	8.70595E-1	8.32764E-2
1.94944E-2	8.68886E-1	8.34402E-2
1.95559E-2	8.67967E-1	8.58327E-2
1.96178E-2	8.68594E-1	8.63464E-2
1.96800E-2	8.68081E-1	8.69735E-2
1.97427E-2	8.66368E-1	8.71454E-2
1.98058E-2	8.66149E-1	9.06311E-2
1.98693E-2	8.66330E-1	9.23436E-2
1.99331E-2	8.68472E-1	9.61458E-2
1.99974E-2	8.68978E-1	9.55145E-2
2.00622E-2	8.73073E-1	9.62119E-2
2.01273E-2	8.71693E-1	9.40698E-2
2.01929E-2	8.69609E-1	9.60202E-2
2.02589E-2	8.71500E-1	9.75330E-2
2.03253E-2	8.71374E-1	9.63995E-2
2.03921E-2	8.70430E-1	9.82273E-2
2.04594E-2	8.72888E-1	9.96691E-2
2.05272E-2	8.74957E-1	9.77191E-2
2.05954E-2	8.74769E-1	9.60253E-2
2.06640E-2	8.73898E-1	9.32603E-2
2.07331E-2	8.69747E-1	9.19807E-2
2.08027E-2	8.66900E-1	9.22828E-2
2.08728E-2	8.63275E-1	9.61455E-2
2.09433E-2	8.64482E-1	9.65896E-2
2.10143E-2	8.61557E-1	9.63372E-2
2.10857E-2	8.60031E-1	9.82523E-2
2.11577E-2	8.55939E-1	9.81379E-2
2.12302E-2	8.53458E-1	1.01938E-1
2.13031E-2	8.50919E-1	1.05180E-1
2.13766E-2	8.49115E-1	1.09526E-1
2.14506E-2	8.49647E-1	1.13577E-1
2.15250E-2	8.48544E-1	1.18438E-1
2.16000E-2	8.50847E-1	1.22231E-1
2.16756E-2	8.51181E-1	1.24533E-1
2.17516E-2	8.53900E-1	1.27064E-1
2.18282E-2	8.54157E-1	1.28782E-1
2.19053E-2	8.54902E-1	1.29839E-1
2.19830E-2	8.54418E-1	1.30498E-1
2.20612E-2	8.52362E-1	1.36092E-1
2.21400E-2	8.57090E-1	1.40009E-1
2.22194E-2	8.60677E-1	1.40587E-1
2.22993E-2	8.63229E-1	1.38434E-1
2.23798E-2	8.58701E-1	1.39164E-1
2.24609E-2	8.58976E-1	1.44358E-1
2.25426E-2	8.62086E-1	1.45577E-1
2.26249E-2	8.64057E-1	1.43509E-1
2.27077E-2	8.60769E-1	1.41153E-1
2.27912E-2	8.59085E-1	1.48414E-1
2.28753E-2	8.60240E-1	1.51702E-1
2.29600E-2	8.68371E-1	1.48554E-1
2.30454E-2	8.59456E-1	1.47186E-1
2.31314E-2	8.56794E-1	1.55230E-1
2.32180E-2	8.62476E-1	1.57686E-1
2.33053E-2	8.61915E-1	1.57788E-1
2.33932E-2	8.58334E-1	1.57281E-1
2.34819E-2	8.53968E-1	1.65112E-1
2.35711E-2	8.57104E-1	1.75008E-1
2.36611E-2	8.66597E-1	1.78860E-1
2.37518E-2	8.71342E-1	1.76739E-1
2.38431E-2	8.77170E-1	1.77275E-1
2.39352E-2	8.77768E-1	1.65761E-1
2.40279E-2	8.67949E-1	1.65332E-1
2.41214E-2	8.66470E-1	1.72539E-1
2.42157E-2	8.62132E-1	1.71088E-1
2.43106E-2	8.55352E-1	1.80627E-1
2.44063E-2	8.63679E-1	1.92201E-1
2.45028E-2	8.67594E-1	1.94215E-1
2.46000E-2	8.75623E-1	1.99287E-1
2.46980E-2	8.79365E-1	1.90478E-1
2.47968E-2	8.73562E-1	1.90027E-1
2.48964E-2	8.69971E-1	1.91961E-1
2.49968E-2	8.65046E-1	1.98255E-1
2.50980E-2	8.70469E-1	2.09083E-1
2.52000E-2	8.65720E-1	2.08497E-1
2.53029E-2	8.68814E-1	2.20991E-1
2.54066E-2	8.71613E-1	2.31754E-1
2.55111E-2	8.83780E-1	2.32524E-1
2.56166E-2	8.83602E-1	2.38229E-1
2.57229E-2	8.84656E-1	2.44163E-1
2.58300E-2	8.91474E-1	2.60243E-1
2.59381E-2	9.07666E-1	2.69923E-1
2.60471E-2	9.32321E-1	2.72438E-1
2.61570E-2	9.48849E-1	2.61369E-1
2.62678E-2	9.61053E-1	2.50246E-1
2.63796E-2	9.64183E-1	2.40100E-1
2.64923E-2	9.64342E-1	2.32283E-1
2.66060E-2	9.71882E-1	2.33568E-1
2.67207E-2	9.79251E-1	2.25683E-1
2.68364E-2	9.81488E-1	2.17527E-1
2.69531E-2	9.82854E-1	2.12137E-1
2.70708E-2	9.90276E-1	2.06508E-1
2.71895E-2	9.94450E-1	1.89552E-1
2.73093E-2	9.87715E-1	1.83251E-1
2.74301E-2	9.89408E-1	1.75863E-1
2.75520E-2	9.87628E-1	1.62511E-1
2.76750E-2	9.79747E-1	1.47997E-1
2.77991E-2	9.61686E-1	1.37259E-1
2.79244E-2	9.40062E-1	1.40416E-1
2.80507E-2	9.30389E-1	1.53699E-1
2.81782E-2	9.21833E-1	1.60550E-1
2.83069E-2	9.20620E-1	1.77598E-1
2.84367E-2	9.20620E-1	1.77598E-1
2.85678E-2	9.22726E-1	1.93449E-1
2.87000E-2	9.28551E-1	1.95466E-1
2.88335E-2	9.37625E-1	1.97840E-1
2.89683E-2	9.39206E-1	2.07622E-1
2.91043E-2	9.46799E-1	1.98564E-1
2.92416E-2	9.51976E-1	2.07988E-1
2.93801E-2	9.53564E-1	1.98204E-1
2.95200E-2	9.56517E-1	2.02297E-1
2.96613E-2	9.55699E-1	2.00900E-1
2.98039E-2	9.62818E-1	2.02530E-1
2.99479E-2	9.68770E-1	2.01286E-1
3.00932E-2	9.72016E-1	1.97013E-1
3.02400E-2	9.73404E-1	1.98787E-1
3.03883E-2	9.75179E-1	2.23549E-1
3.05380E-2	1.03602E+0	1.98355E-1
3.06892E-2	1.01848E+0	1.52678E-1
3.08418E-2	9.96082E-1	1.42057E-1
3.09960E-2	9.85277E-1	1.44122E-1
3.11518E-2	9.77503E-1	1.43222E-1
3.13091E-2	9.76638E-1	1.40789E-1
3.14681E-2	9.72907E-1	1.36190E-1
3.16286E-2	9.64031E-1	1.31739E-1
3.17908E-2	9.56797E-1	1.35870E-1
3.19547E-2	9.61249E-1	1.37841E-1
3.21203E-2	9.55083E-1	1.27214E-1
3.22875E-2	9.46231E-1	1.27876E-1
3.24566E-2	9.40565E-1	1.32899E-1
3.26274E-2	9.41902E-1	1.34834E-1
3.28000E-2	9.41621E-1	1.29033E-1
3.29745E-2	9.33195E-1	1.25911E-1
3.31509E-2	9.27079E-1	1.28360E-1
3.33291E-2	9.23973E-1	1.29333E-1
3.35092E-2	9.21019E-1	1.27576E-1
3.36914E-2	9.11846E-1	1.28311E-1
3.38755E-2	9.12002E-1	1.33223E-1
3.40616E-2	9.07612E-1	1.29461E-1
3.42498E-2	9.00024E-1	1.30552E-1
3.44401E-2	8.95554E-1	1.37903E-1
3.46325E-2	8.93832E-1	1.37610E-1
3.48270E-2	8.89915E-1	1.37654E-1
3.50238E-2	8.87426E-1	1.39730E-1
3.52228E-2	8.81562E-1	1.38391E-1
3.54241E-2	8.76774E-1	1.36865E-1
3.56276E-2	8.63048E-1	1.37304E-1
3.58336E-2	8.51686E-1	1.46181E-1
3.60419E-2	8.45177E-1	1.59138E-1
3.62527E-2	8.40733E-1	1.78416E-1
3.64659E-2	8.62072E-1	1.82119E-1
3.66817E-2	8.55769E-1	1.77034E-1
3.69001E-2	8.56029E-1	1.81069E-1
3.71210E-2	8.51722E-1	1.77288E-1
3.73446E-2	8.43410E-1	1.82592E-1
3.75710E-2	8.38816E-1	1.91341E-1
3.78001E-2	8.42377E-1	1.96468E-1
3.80320E-2	8.33765E-1	1.97898E-1
3.82667E-2	8.32474E-1	2.16824E-1
3.85044E-2	8.47860E-1	2.18786E-1
3.87451E-2	8.45199E-1	2.08235E-1
3.89887E-2	8.32148E-1	2.08496E-1
3.92355E-2	8.31411E-1	2.21912E-1
3.94854E-2	8.27216E-1	2.24246E-1
3.97385E-2	8.28261E-1	2.32415E-1
3.99949E-2	8.24976E-1	2.35765E-1
4.02546E-2	8.26096E-1	2.35445E-1
4.05177E-2	8.12235E-1	2.44387E-1
4.07843E-2	8.09325E-1	2.58858E-1
4.10544E-2	8.14437E-1	2.74423E-1
4.13281E-2	8.26501E-1	2.77677E-1
4.16054E-2	8.23954E-1	2.75501E-1
4.18865E-2	8.27043E-1	2.75681E-1
4.21715E-2	8.07345E-1	2.84265E-1
4.24603E-2	8.13342E-1	3.12292E-1
4.27532E-2	8.23277E-1	3.23706E-1
4.30501E-2	8.53830E-1	3.33205E-1
4.33511E-2	8.63616E-1	3.14376E-1
4.36564E-2	8.62509E-1	3.03185E-1
4.39660E-2	8.52485E-1	2.96193E-1
4.42801E-2	8.43748E-1	2.99852E-1
4.45986E-2	8.45816E-1	3.05622E-1
4.49218E-2	8.39970E-1	3.10725E-1
4.52497E-2	8.40746E-1	3.12817E-1
4.55824E-2	8.46573E-1	3.07711E-1
4.59201E-2	8.29906E-1	3.01239E-1
4.62628E-2	8.08163E-1	3.18005E-1
4.66106E-2	8.19366E-1	3.41117E-1
4.69637E-2	8.15373E-1	3.23778E-1
4.73222E-2	7.95851E-1	3.41144E-1
4.76862E-2	7.92458E-1	3.74152E-1
4.80559E-2	8.00050E-1	3.89975E-1
4.84313E-2	8.17558E-1	4.07922E-1
4.88127E-2	8.30016E-1	4.02402E-1
4.92001E-2	8.26809E-1	4.09405E-1
4.95937E-2	8.34334E-1	4.29085E-1
4.99936E-2	8.58853E-1	4.35464E-1
5.04001E-2	8.79514E-1	4.01927E-1
5.08132E-2	8.38958E-1	3.90961E-1
5.12331E-2	8.21027E-1	4.20815E-1
5.16601E-2	8.33333E-1	4.62000E-1
5.20942E-2	8.76808E-1	4.69886E-1
5.25357E-2	9.06280E-1	4.39709E-1
5.29847E-2	8.98194E-1	3.99691E-1
5.34415E-2	8.64960E-1	3.71693E-1
5.39062E-2	7.94410E-1	3.78268E-1
5.43790E-2	7.53997E-1	4.33026E-1
5.48603E-2	7.56968E-1	5.03984E-1
5.53501E-2	7.91884E-1	5.61320E-1
5.58487E-2	8.41017E-1	5.58847E-1
5.63564E-2	8.36368E-1	5.66138E-1
5.68735E-2	8.48555E-1	5.85701E-1
5.74001E-2	8.62385E-1	6.18633E-1
5.79365E-2	9.21613E-1	6.61340E-1
5.84831E-2	9.80390E-1	6.34952E-1
5.90401E-2	1.02450E+0	6.07125E-1
5.96078E-2	1.04984E+0	5.51512E-1
6.01865E-2	9.86434E-1	4.75450E-1
6.07766E-2	9.66267E-1	5.28840E-1
6.13783E-2	9.61911E-1	5.20838E-1
6.19921E-2	9.38605E-1	5.44958E-1
6.26183E-2	9.71052E-1	5.81328E-1
6.32572E-2	9.69616E-1	5.53312E-1
6.39094E-2	9.51161E-1	5.69830E-1
6.45751E-2	9.62776E-1	6.06579E-1
6.52548E-2	1.00365E+0	6.14258E-1
6.59490E-2	1.01682E+0	6.22036E-1
6.66582E-2	1.02806E+0	6.14748E-1
6.73827E-2	1.05247E+0	6.24248E-1
6.81232E-2	1.08425E+0	5.92114E-1
6.88801E-2	1.08906E+0	5.83991E-1
6.96540E-2	1.08084E+0	5.56973E-1
7.04456E-2	1.07477E+0	5.57793E-1
7.12553E-2	1.08149E+0	5.46467E-1
7.20838E-2	1.06977E+0	5.38900E-1
7.29319E-2	1.04988E+0	5.42444E-1
7.38001E-2	1.05259E+0	5.56723E-1
7.46893E-2	1.04665E+0	5.76603E-1
7.56001E-2	1.06840E+0	5.92008E-1
7.65334E-2	1.10693E+0	5.93536E-1
7.74901E-2	1.12975E+0	5.44368E-1
7.84710E-2	1.07507E+0	5.22289E-1
7.94770E-2	1.07415E+0	5.52994E-1
8.05092E-2	1.07824E+0	5.54610E-1
8.15685E-2	1.09474E+0	5.71367E-1
8.26561E-2	1.15596E+0	5.49761E-1
8.37731E-2	1.10712E+0	4.48010E-1
8.49207E-2	1.03354E+0	4.69261E-1
8.61001E-2	1.01582E+0	4.64648E-1
8.73128E-2	9.74143E-1	5.00953E-1
8.85601E-2	9.86360E-1	5.39357E-1
8.98436E-2	9.82864E-1	5.23470E-1
9.11648E-2	9.39923E-1	5.18127E-1
9.25255E-2	8.89642E-1	5.58089E-1
9.39274E-2	8.88392E-1	5.96021E-1
9.53725E-2	8.86435E-1	6.48666E-1
9.68626E-2	8.74028E-1	6.67027E-1
9.84001E-2	9.28569E-1	6.97309E-1
9.99872E-2	9.14524E-1	6.78495E-1
1.01626E-1	8.61148E-1	7.02550E-1
1.03320E-1	8.62684E-1	7.38393E-1
1.05071E-1	8.55927E-1	7.65252E-1
1.06883E-1	7.75042E-1	8.23826E-1
1.08758E-1	8.31840E-1	8.94403E-1
1.10700E-1	8.03546E-1	9.31496E-1
1.12713E-1	8.23912E-1	1.02802E+0
1.14800E-1	8.57706E-1	1.02599E+0
1.16966E-1	7.97976E-1	1.10216E+0
1.19216E-1	8.96030E-1	1.20866E+0
1.21553E-1	8.78920E-1	1.23106E+0
1.23984E-1	9.52177E-1	1.38262E+0
1.26514E-1	1.04149E+0	1.42152E+0
1.29150E-1	1.05902E+0	1.46031E+0
1.31898E-1	1.19098E+0	1.59575E+0
1.34765E-1	1.39444E+0	1.63507E+0
1.37760E-1	1.50194E+0	1.47642E+0
1.40891E-1	1.44248E+0	1.46484E+0
1.44168E-1	1.54850E+0	1.65676E+0
1.47600E-1	1.70147E+0	1.53720E+0
1.51200E-1	1.85496E+0	1.48117E+0
1.54980E-1	1.84689E+0	1.44188E+0
1.58954E-1	1.92790E+0	1.29260E+0
1.63137E-1	1.85059E+0	1.34227E+0
1.67546E-1	2.05458E+0	1.30587E+0
1.72200E-1	1.99908E+0	1.25433E+0
1.77120E-1	2.02024E+0	1.22857E+0
1.82330E-1	2.04775E+0	1.12929E+0
1.87855E-1	2.07264E+0	1.18062E+0
1.93725E-1	2.13813E+0	1.06846E+0
1.99974E-1	2.09259E+0	9.85861E-1
2.06640E-1	1.95121E+0	9.80929E-1
2.13766E-1	1.90967E+0	1.13527E+0
2.21400E-1	2.05275E+0	1.27780E+0
2.29600E-1	2.21853E+0	1.29726E+0
2.38431E-1	2.37512E+0	1.19046E+0
2.47968E-1	2.34270E+0	1.04367E+0
2.58300E-1	2.27143E+0	1.20100E+0
2.69531E-1	2.44379E+0	1.20960E+0
2.81782E-1	2.58783E+0	1.26129E+0
2.95200E-1	2.85429E+0	1.19749E+0
3.09960E-1	3.01910E+0	9.14843E-1
3.26274E-1	2.88638E+0	6.92218E-1
3.44401E-1	2.97534E+0	7.22943E-1
3.64659E-1	3.09571E+0	5.37034E-1
3.87451E-1	3.07102E+0	2.59197E-1
4.13281E-1	2.89955E+0	9.69116E-2
4.42801E-1	2.75622E+0	4.17238E-2
4.76862E-1	2.65814E+0	2.63342E-2
5.16601E-1	2.58909E+0	1.95049E-2
5.63564E-1	2.53638E+0	1.51791E-2
6.19921E-1	2.49462E+0	1.22263E-2
6.88801E-1	2.46091E+0	9.95565E-3
7.74901E-1	2.43332E+0	8.01373E-3
8.85601E-1	2.41082E+0	6.63675E-3
1.03320E+0	2.39229E+0	5.43413E-3
1.23984E+0	2.37740E+0	4.20628E-3
1.54980E+0	2.36580E+0	3.38152E-3
2.06640E+0	2.35691E+0	2.33357E-3
3.09960E+0	2.35075E+0	1.48889E-3
6.19921E+0	2.34713E+0	8.52106E-4
