Material: main / MoO3 / Lajaunie-gamma
Optical constants. L. Lajaunie, F. Boucher, R. Dessapt, and P. Moreau. Strong anisotropic influence of local-field effects on the dielectric response of α-MoO3, Phys. Rev. B 88, 115141 (2013)(using numerical data made publicly available by Luc Lajaunie)
Comments: α-MoO3; nγ, kγ.
wavelength (um)	n	k
1.90745E-2	8.78433E-1	7.51338E-2
1.91334E-2	8.77254E-1	7.46648E-2
1.91926E-2	8.75978E-1	7.30612E-2
1.92522E-2	8.73708E-1	7.32510E-2
1.93122E-2	8.71480E-1	7.40120E-2
1.93725E-2	8.70438E-1	7.52495E-2
1.94333E-2	8.69498E-1	7.76310E-2
1.94944E-2	8.70740E-1	7.86687E-2
1.95559E-2	8.69082E-1	7.93941E-2
1.96178E-2	8.69705E-1	7.99122E-2
1.96800E-2	8.68511E-1	7.94463E-2
1.97427E-2	8.65705E-1	8.02814E-2
1.98058E-2	8.64941E-1	8.43988E-2
1.98693E-2	8.64997E-1	8.49714E-2
1.99331E-2	8.65225E-1	8.72605E-2
1.99974E-2	8.67510E-1	8.70307E-2
2.00622E-2	8.65283E-1	8.78325E-2
2.01273E-2	8.65740E-1	8.66311E-2
2.01929E-2	8.62419E-1	8.81243E-2
2.02589E-2	8.60240E-1	8.95100E-2
2.03253E-2	8.57729E-1	9.32695E-2
2.03921E-2	8.59723E-1	1.00614E-1
2.04594E-2	8.65641E-1	1.01659E-1
2.05272E-2	8.67021E-1	9.86136E-2
2.05954E-2	8.68791E-1	9.89881E-2
2.06640E-2	8.70436E-1	9.30568E-2
2.07331E-2	8.64555E-1	9.19548E-2
2.08027E-2	8.61117E-1	9.23219E-2
2.08728E-2	8.57983E-1	9.55730E-2
2.09433E-2	8.55165E-1	9.64726E-2
2.10143E-2	8.54851E-1	9.88476E-2
2.10857E-2	8.53321E-1	1.00783E-1
2.11577E-2	8.52372E-1	1.02655E-1
2.12302E-2	8.48686E-1	1.01333E-1
2.13031E-2	8.42706E-1	1.05612E-1
2.13766E-2	8.41942E-1	1.13428E-1
2.14506E-2	8.40753E-1	1.17752E-1
2.15250E-2	8.40752E-1	1.21915E-1
2.16000E-2	8.40138E-1	1.29741E-1
2.16756E-2	8.44524E-1	1.34987E-1
2.17516E-2	8.48723E-1	1.39032E-1
2.18282E-2	8.50152E-1	1.40563E-1
2.19053E-2	8.56157E-1	1.48337E-1
2.19830E-2	8.66870E-1	1.46504E-1
2.20612E-2	8.66731E-1	1.34990E-1
2.21400E-2	8.65012E-1	1.38726E-1
2.22194E-2	8.66228E-1	1.39109E-1
2.22993E-2	8.68682E-1	1.36414E-1
2.23798E-2	8.65254E-1	1.32909E-1
2.24609E-2	8.64124E-1	1.33083E-1
2.25426E-2	8.59379E-1	1.28581E-1
2.26249E-2	8.52966E-1	1.32479E-1
2.27077E-2	8.49016E-1	1.37218E-1
2.27912E-2	8.48929E-1	1.47244E-1
2.28753E-2	8.56157E-1	1.48337E-1
2.29600E-2	8.51580E-1	1.42089E-1
2.30454E-2	8.45094E-1	1.45546E-1
2.31314E-2	8.38474E-1	1.55044E-1
2.32180E-2	8.36665E-1	1.64343E-1
2.33053E-2	8.44568E-1	1.74054E-1
2.33932E-2	8.46974E-1	1.77101E-1
2.34819E-2	8.47609E-1	1.82867E-1
2.35711E-2	8.54008E-1	1.93207E-1
2.36611E-2	8.68759E-1	1.96832E-1
2.37518E-2	8.72777E-1	1.89052E-1
2.38431E-2	8.74465E-1	1.91546E-1
2.39352E-2	8.86402E-1	1.88966E-1
2.40279E-2	8.86875E-1	1.80409E-1
2.41214E-2	8.85460E-1	1.76180E-1
2.42157E-2	8.81984E-1	1.72906E-1
2.43106E-2	8.80678E-1	1.72027E-1
2.44063E-2	8.68576E-1	1.74424E-1
2.45028E-2	8.72229E-1	1.78279E-1
2.46000E-2	8.69524E-1	1.84584E-1
2.46980E-2	8.78119E-1	1.87332E-1
2.47968E-2	8.81433E-1	1.75850E-1
2.48964E-2	8.67156E-1	1.67213E-1
2.49968E-2	8.52402E-1	1.77733E-1
2.50980E-2	8.44340E-1	1.89497E-1
2.52000E-2	8.49669E-1	2.04786E-1
2.53029E-2	8.46868E-1	2.14909E-1
2.54066E-2	8.53695E-1	2.23148E-1
2.55111E-2	8.60330E-1	2.28401E-1
2.56166E-2	8.60419E-1	2.39418E-1
2.57229E-2	8.67205E-1	2.45040E-1
2.58300E-2	8.73811E-1	2.54059E-1
2.59381E-2	8.87003E-1	2.52536E-1
2.60471E-2	8.92495E-1	2.56024E-1
2.61570E-2	8.97292E-1	2.55212E-1
2.62678E-2	8.99282E-1	2.60208E-1
2.63796E-2	9.10673E-1	2.65189E-1
2.64923E-2	9.15300E-1	2.66033E-1
2.66060E-2	9.20341E-1	2.68379E-1
2.67207E-2	9.30611E-1	2.70253E-1
2.68364E-2	9.34569E-1	2.69108E-1
2.69531E-2	9.39869E-1	2.74506E-1
2.70708E-2	9.48301E-1	2.81556E-1
2.71895E-2	9.68604E-1	2.84946E-1
2.73093E-2	9.84733E-1	2.82310E-1
2.74301E-2	1.00151E+0	2.72088E-1
2.75520E-2	1.01706E+0	2.61539E-1
2.76750E-2	1.02719E+0	2.39001E-1
2.77991E-2	1.03357E+0	2.26401E-1
2.79244E-2	1.02893E+0	1.99236E-1
2.80507E-2	1.01505E+0	1.79794E-1
2.81782E-2	1.00108E+0	1.84801E-1
2.83069E-2	1.00208E+0	1.82121E-1
2.84367E-2	1.00359E+0	1.70886E-1
2.85678E-2	9.92547E-1	1.61705E-1
2.87000E-2	9.77319E-1	1.58597E-1
2.88335E-2	9.69409E-1	1.66596E-1
2.89683E-2	9.66884E-1	1.60826E-1
2.91043E-2	9.49949E-1	1.80010E-1
2.92416E-2	9.58567E-1	1.89345E-1
2.93801E-2	9.69674E-1	1.85114E-1
2.95200E-2	9.71641E-1	1.87312E-1
2.96613E-2	9.70545E-1	1.78766E-1
2.98039E-2	9.70587E-1	1.76182E-1
2.99479E-2	9.60158E-1	1.78616E-1
3.00932E-2	9.57490E-1	1.83814E-1
3.02400E-2	9.50756E-1	1.99841E-1
3.03883E-2	1.00127E+0	2.29209E-1
3.05380E-2	1.01181E+0	1.63569E-1
3.06892E-2	9.83285E-1	1.57635E-1
3.08418E-2	9.85030E-1	1.55833E-1
3.09960E-2	9.71888E-1	1.50223E-1
3.11518E-2	9.60323E-1	1.61925E-1
3.13091E-2	9.66071E-1	1.68207E-1
3.14681E-2	9.68903E-1	1.57394E-1
3.16286E-2	9.60744E-1	1.61333E-1
3.17908E-2	9.64534E-1	1.62254E-1
3.19547E-2	9.64875E-1	1.64270E-1
3.21203E-2	9.67807E-1	1.60156E-1
3.22875E-2	9.69243E-1	1.56308E-1
3.24566E-2	9.69295E-1	1.50109E-1
3.26274E-2	9.65847E-1	1.44433E-1
3.28000E-2	9.65683E-1	1.39797E-1
3.29745E-2	9.58438E-1	1.28855E-1
3.31509E-2	9.42450E-1	1.27328E-1
3.33291E-2	9.36238E-1	1.32445E-1
3.35092E-2	9.30538E-1	1.33794E-1
3.36914E-2	9.26472E-1	1.35460E-1
3.38755E-2	9.22180E-1	1.39344E-1
3.40616E-2	9.19689E-1	1.40809E-1
3.42498E-2	9.14699E-1	1.36657E-1
3.44401E-2	9.06320E-1	1.42885E-1
3.46325E-2	9.06921E-1	1.46650E-1
3.48270E-2	9.02459E-1	1.42943E-1
3.50238E-2	8.93494E-1	1.46056E-1
3.52228E-2	8.85024E-1	1.52538E-1
3.54241E-2	8.86405E-1	1.53993E-1
3.56276E-2	8.78750E-1	1.58748E-1
3.58336E-2	8.71937E-1	1.65150E-1
3.60419E-2	8.64803E-1	1.72872E-1
3.62527E-2	8.67962E-1	1.90677E-1
3.64659E-2	8.79719E-1	1.92107E-1
3.66817E-2	8.75200E-1	1.89671E-1
3.69001E-2	8.70475E-1	1.99316E-1
3.71210E-2	8.78533E-1	2.02041E-1
3.73446E-2	8.83095E-1	2.02130E-1
3.75710E-2	8.79539E-1	1.98968E-1
3.78001E-2	8.79447E-1	2.03537E-1
3.80320E-2	8.76966E-1	2.07534E-1
3.82667E-2	8.80582E-1	2.08385E-1
3.85044E-2	8.83177E-1	2.04942E-1
3.87451E-2	8.78533E-1	2.02041E-1
3.89887E-2	8.80613E-1	2.06106E-1
3.92355E-2	8.80796E-1	1.96981E-1
3.94854E-2	8.66380E-1	1.88716E-1
3.97385E-2	8.54897E-1	1.97100E-1
3.99949E-2	8.50315E-1	1.97574E-1
4.02546E-2	8.33702E-1	2.07508E-1
4.05177E-2	8.32353E-1	2.18657E-1
4.07843E-2	8.29627E-1	2.30827E-1
4.10544E-2	8.31459E-1	2.30919E-1
4.13281E-2	8.35667E-1	2.30953E-1
4.16054E-2	8.23299E-1	2.31994E-1
4.18865E-2	8.15558E-1	2.34809E-1
4.21715E-2	8.02298E-1	2.44298E-1
4.24603E-2	7.83846E-1	2.65358E-1
4.27532E-2	7.94483E-1	2.83203E-1
4.30501E-2	7.89660E-1	2.97596E-1
4.33511E-2	8.10492E-1	3.23878E-1
4.36564E-2	8.27191E-1	3.19757E-1
4.39660E-2	8.33672E-1	3.01677E-1
4.42801E-2	8.15029E-1	2.92014E-1
4.45986E-2	7.92430E-1	3.12961E-1
4.49218E-2	7.96845E-1	3.37582E-1
4.52497E-2	8.07764E-1	3.39827E-1
4.55824E-2	8.03776E-1	3.42135E-1
4.59201E-2	7.84678E-1	3.51737E-1
4.62628E-2	7.82373E-1	3.79614E-1
4.66106E-2	7.92214E-1	3.98251E-1
4.69637E-2	7.88215E-1	4.18668E-1
4.73222E-2	8.09247E-1	4.60305E-1
4.76862E-2	8.62177E-1	4.77860E-1
4.80559E-2	8.99129E-1	4.43207E-1
4.84313E-2	9.08727E-1	4.19268E-1
4.88127E-2	8.89015E-1	4.06630E-1
4.92001E-2	8.95267E-1	4.10492E-1
4.95937E-2	8.97368E-1	3.97830E-1
4.99936E-2	8.82566E-1	3.89773E-1
5.04001E-2	8.79228E-1	3.82154E-1
5.08132E-2	8.51040E-1	3.77186E-1
5.12331E-2	8.18380E-1	3.83074E-1
5.16601E-2	8.01682E-1	4.37829E-1
5.20942E-2	8.15880E-1	4.53498E-1
5.25357E-2	8.07846E-1	4.61103E-1
5.29847E-2	8.06719E-1	5.00794E-1
5.34415E-2	8.30521E-1	5.27982E-1
5.39062E-2	8.37868E-1	5.39465E-1
5.43790E-2	8.41064E-1	5.49899E-1
5.48603E-2	8.69238E-1	5.72341E-1
5.53501E-2	8.57870E-1	5.77010E-1
5.58487E-2	8.79233E-1	6.22133E-1
5.63564E-2	9.01794E-1	6.27083E-1
5.68735E-2	9.28887E-1	6.70695E-1
5.74001E-2	9.86739E-1	6.65323E-1
5.79365E-2	1.02343E+0	6.65896E-1
5.84831E-2	1.04154E+0	6.37035E-1
5.90401E-2	1.05654E+0	6.45975E-1
5.96078E-2	1.09789E+0	6.36677E-1
6.01865E-2	1.10248E+0	5.99556E-1
6.07766E-2	1.10039E+0	6.05693E-1
6.13783E-2	1.14684E+0	5.96858E-1
6.19921E-2	1.15968E+0	5.40236E-1
6.26183E-2	1.12362E+0	5.27757E-1
6.32572E-2	1.11946E+0	5.28381E-1
6.39094E-2	1.11821E+0	5.37020E-1
6.45751E-2	1.13424E+0	5.33395E-1
6.52548E-2	1.15503E+0	5.21631E-1
6.59490E-2	1.12640E+0	5.08700E-1
6.66582E-2	1.14689E+0	5.01356E-1
6.73827E-2	1.13859E+0	4.79981E-1
6.81232E-2	1.11409E+0	4.82905E-1
6.88801E-2	1.13531E+0	4.95902E-1
6.96540E-2	1.13176E+0	4.84644E-1
7.04456E-2	1.12367E+0	4.70779E-1
7.12553E-2	1.10817E+0	4.61571E-1
7.20838E-2	1.08797E+0	4.76115E-1
7.29319E-2	1.07359E+0	5.01589E-1
7.38001E-2	1.09082E+0	5.26208E-1
7.46893E-2	1.10475E+0	5.43564E-1
7.56001E-2	1.13760E+0	5.55996E-1
7.65334E-2	1.17694E+0	5.17868E-1
7.74901E-2	1.14611E+0	5.14351E-1
7.84710E-2	1.18849E+0	5.19145E-1
7.94770E-2	1.19151E+0	4.83420E-1
8.05092E-2	1.18600E+0	4.82292E-1
8.15685E-2	1.19540E+0	4.40438E-1
8.26561E-2	1.18137E+0	4.20275E-1
8.37731E-2	1.14868E+0	3.91753E-1
8.49207E-2	1.11084E+0	3.97447E-1
8.61001E-2	1.07314E+0	4.11874E-1
8.73128E-2	1.08183E+0	4.33989E-1
8.85601E-2	1.06838E+0	4.35239E-1
8.98436E-2	1.04753E+0	4.45333E-1
9.11648E-2	1.04659E+0	4.58634E-1
9.25255E-2	1.05652E+0	4.86031E-1
9.39274E-2	1.05306E+0	4.44895E-1
9.53725E-2	1.03831E+0	4.55067E-1
9.68626E-2	1.01310E+0	4.29377E-1
9.84001E-2	9.58155E-1	4.39386E-1
9.99872E-2	9.20235E-1	4.53688E-1
1.01626E-1	8.74893E-1	4.90345E-1
1.03320E-1	8.22254E-1	5.32074E-1
1.05071E-1	7.89325E-1	6.07481E-1
1.06883E-1	7.97579E-1	7.18424E-1
1.08758E-1	8.23189E-1	7.65924E-1
1.10700E-1	8.70365E-1	8.06558E-1
1.12713E-1	8.98342E-1	9.04444E-1
1.14800E-1	9.33981E-1	8.41024E-1
1.16966E-1	1.00224E+0	9.71328E-1
1.19216E-1	1.10067E+0	7.87702E-1
1.21553E-1	9.31832E-1	7.88232E-1
1.23984E-1	8.54979E-1	8.99438E-1
1.26514E-1	8.90220E-1	1.02053E+0
1.29150E-1	9.99633E-1	1.14292E+0
1.31898E-1	1.06589E+0	1.10096E+0
1.34765E-1	1.15109E+0	1.14630E+0
1.37760E-1	1.09982E+0	1.05290E+0
1.40891E-1	1.06488E+0	1.19497E+0
1.44168E-1	1.15918E+0	1.28324E+0
1.47600E-1	1.21557E+0	1.30062E+0
1.51200E-1	1.33386E+0	1.37083E+0
1.54980E-1	1.38421E+0	1.37624E+0
1.58954E-1	1.46938E+0	1.36384E+0
1.63137E-1	1.58815E+0	1.33237E+0
1.67546E-1	1.56845E+0	1.28375E+0
1.72200E-1	1.76958E+0	1.44582E+0
1.77120E-1	1.87275E+0	1.13763E+0
1.82330E-1	1.80451E+0	1.04128E+0
1.87855E-1	1.78068E+0	8.85898E-1
1.93725E-1	1.50792E+0	9.25113E-1
1.99974E-1	1.45824E+0	1.11779E+0
2.06640E-1	1.46028E+0	1.26072E+0
2.13766E-1	1.59183E+0	1.36415E+0
2.21400E-1	1.65732E+0	1.37903E+0
2.29600E-1	1.76714E+0	1.54233E+0
2.38431E-1	1.79033E+0	1.49442E+0
2.47968E-1	1.97740E+0	1.58339E+0
2.58300E-1	2.04280E+0	1.40714E+0
2.69531E-1	1.94322E+0	1.75559E+0
2.81782E-1	2.42714E+0	1.74012E+0
2.95200E-1	2.49655E+0	1.54653E+0
3.09960E-1	2.52817E+0	1.72674E+0
3.26274E-1	2.99223E+0	1.67584E+0
3.44401E-1	3.14744E+0	1.47390E+0
3.64659E-1	3.45638E+0	1.21514E+0
3.87451E-1	3.44967E+0	8.88927E-1
4.13281E-1	3.54288E+0	5.93302E-1
4.42801E-1	3.37327E+0	1.75942E-1
4.76862E-1	3.09669E+0	6.68456E-2
5.16601E-1	2.93832E+0	4.15203E-2
5.63564E-1	2.83141E+0	2.94906E-2
6.19921E-1	2.75273E+0	2.23415E-2
6.88801E-1	2.69227E+0	1.74574E-2
7.74901E-1	2.64446E+0	1.38024E-2
8.85601E-1	2.60655E+0	1.11258E-2
1.03320E+0	2.57606E+0	8.73427E-3
1.23984E+0	2.55207E+0	6.85719E-3
1.54980E+0	2.53338E+0	5.32884E-3
2.06640E+0	2.51933E+0	3.77085E-3
3.09960E+0	2.50958E+0	2.59007E-3
6.19921E+0	2.50400E+0	1.19808E-3
