Material: main / MoO3 / Lajaunie-alpha
Optical constants. L. Lajaunie, F. Boucher, R. Dessapt, and P. Moreau. Strong anisotropic influence of local-field effects on the dielectric response of α-MoO3, Phys. Rev. B 88, 115141 (2013)(using numerical data made publicly available by Luc Lajaunie)
Comments: α-MoO3; nα, kα.
wavelength (um)	n	k
1.90745E-2	8.85482E-1	8.41350E-2
1.91334E-2	8.86289E-1	8.06735E-2
1.91926E-2	8.81548E-1	7.82714E-2
1.92522E-2	8.76109E-1	8.10401E-2
1.93122E-2	8.77835E-1	8.71462E-2
1.93725E-2	8.81324E-1	8.79358E-2
1.94333E-2	8.81381E-1	8.84975E-2
1.94944E-2	8.83064E-1	8.83288E-2
1.95559E-2	8.84129E-1	8.76569E-2
1.96178E-2	8.82281E-1	8.61403E-2
1.96800E-2	8.81269E-1	8.73740E-2
1.97427E-2	8.79188E-1	8.92869E-2
1.98058E-2	8.80840E-1	9.42282E-2
1.98693E-2	8.82582E-1	9.46088E-2
1.99331E-2	8.86856E-1	9.75356E-2
1.99974E-2	8.91559E-1	9.42170E-2
2.00622E-2	8.92323E-1	9.07743E-2
2.01273E-2	8.89658E-1	8.65501E-2
2.01929E-2	8.88041E-1	8.72708E-2
2.02589E-2	8.84633E-1	8.70417E-2
2.03253E-2	8.84411E-1	9.04557E-2
2.03921E-2	8.87261E-1	9.07287E-2
2.04594E-2	8.88764E-1	8.88875E-2
2.05272E-2	8.86257E-1	8.63181E-2
2.05954E-2	8.82392E-1	8.72629E-2
2.06640E-2	8.83681E-1	8.88330E-2
2.07331E-2	8.83569E-1	8.77125E-2
2.08027E-2	8.81775E-1	8.67568E-2
2.08728E-2	8.79581E-1	8.75416E-2
2.09433E-2	8.80144E-1	8.74857E-2
2.10143E-2	8.75919E-1	8.50535E-2
2.10857E-2	8.71667E-1	8.83365E-2
2.11577E-2	8.71332E-1	9.06657E-2
2.12302E-2	8.68610E-1	9.21012E-2
2.13031E-2	8.67146E-1	9.45631E-2
2.13766E-2	8.66516E-1	9.92480E-2
2.14506E-2	8.66647E-1	1.00387E-1
2.15250E-2	8.66413E-1	1.03300E-1
2.16000E-2	8.66258E-1	1.06781E-1
2.16756E-2	8.68953E-1	1.09902E-1
2.17516E-2	8.71215E-1	1.09617E-1
2.18282E-2	8.72838E-1	1.08840E-1
2.19053E-2	8.72415E-1	1.10039E-1
2.19830E-2	8.75092E-1	1.08560E-1
2.20612E-2	8.72919E-1	1.04821E-1
2.21400E-2	8.71789E-1	1.04957E-1
2.22194E-2	8.67186E-1	1.04937E-1
2.22993E-2	8.66188E-1	1.06213E-1
2.23798E-2	8.62198E-1	1.06704E-1
2.24609E-2	8.57261E-1	1.09068E-1
2.25426E-2	8.52423E-1	1.16726E-1
2.26249E-2	8.58305E-1	1.25247E-1
2.27077E-2	8.63588E-1	1.25639E-1
2.27912E-2	8.65935E-1	1.21834E-1
2.28753E-2	8.61883E-1	1.21826E-1
2.29600E-2	8.62612E-1	1.22883E-1
2.30454E-2	8.62133E-1	1.19471E-1
2.31314E-2	8.53969E-1	1.23541E-1
2.32180E-2	8.55301E-1	1.28610E-1
2.33053E-2	8.55045E-1	1.26894E-1
2.33932E-2	8.48154E-1	1.27925E-1
2.34819E-2	8.42009E-1	1.37766E-1
2.35711E-2	8.46101E-1	1.51282E-1
2.36611E-2	8.53817E-1	1.51672E-1
2.37518E-2	8.55304E-1	1.56669E-1
2.38431E-2	8.69487E-1	1.58139E-1
2.39352E-2	8.70323E-1	1.46497E-1
2.40279E-2	8.62272E-1	1.43226E-1
2.41214E-2	8.57468E-1	1.45778E-1
2.42157E-2	8.52480E-1	1.50737E-1
2.43106E-2	8.60645E-1	1.60345E-1
2.44063E-2	8.64740E-1	1.50912E-1
2.45028E-2	8.57684E-1	1.50405E-1
2.46000E-2	8.52580E-1	1.51305E-1
2.46980E-2	8.50455E-1	1.55799E-1
2.47968E-2	8.47501E-1	1.55752E-1
2.48964E-2	8.43139E-1	1.57744E-1
2.49968E-2	8.33330E-1	1.62601E-1
2.50980E-2	8.29995E-1	1.72893E-1
2.52000E-2	8.24030E-1	1.84459E-1
2.53029E-2	8.23063E-1	2.01078E-1
2.54066E-2	8.38774E-1	2.13407E-1
2.55111E-2	8.42266E-1	2.10741E-1
2.56166E-2	8.44091E-1	2.15616E-1
2.57229E-2	8.43820E-1	2.16871E-1
2.58300E-2	8.37584E-1	2.29231E-1
2.59381E-2	8.45460E-1	2.38332E-1
2.60471E-2	8.44630E-1	2.55733E-1
2.61570E-2	8.63923E-1	2.70857E-1
2.62678E-2	8.76511E-1	2.66968E-1
2.63796E-2	8.73820E-1	2.71223E-1
2.64923E-2	8.81987E-1	2.93088E-1
2.66060E-2	8.98234E-1	3.11166E-1
2.67207E-2	9.30651E-1	3.28802E-1
2.68364E-2	9.75207E-1	3.19419E-1
2.69531E-2	9.99451E-1	2.98164E-1
2.70708E-2	1.02205E+0	2.80320E-1
2.71895E-2	1.04121E+0	2.49230E-1
2.73093E-2	1.04314E+0	2.17132E-1
2.74301E-2	1.03674E+0	1.86642E-1
2.75520E-2	1.02145E+0	1.71326E-1
2.76750E-2	1.01445E+0	1.55257E-1
2.77991E-2	9.97909E-1	1.40794E-1
2.79244E-2	9.80510E-1	1.35644E-1
2.80507E-2	9.69588E-1	1.38203E-1
2.81782E-2	9.62133E-1	1.33038E-1
2.83069E-2	9.47479E-1	1.29290E-1
2.84367E-2	9.34670E-1	1.36412E-1
2.85678E-2	9.27019E-1	1.39156E-1
2.87000E-2	9.17891E-1	1.43263E-1
2.88335E-2	9.06286E-1	1.52822E-1
2.89683E-2	9.04430E-1	1.70273E-1
2.91043E-2	9.07449E-1	1.82930E-1
2.92416E-2	9.11796E-1	1.77123E-1
2.93801E-2	9.04592E-1	1.95668E-1
2.95200E-2	9.14820E-1	2.02226E-1
2.96613E-2	9.20130E-1	2.06493E-1
2.98039E-2	9.36840E-1	2.11349E-1
2.99479E-2	9.24207E-1	2.07746E-1
3.00932E-2	9.32298E-1	2.34903E-1
3.02400E-2	9.77575E-1	2.63918E-1
3.03883E-2	1.02895E+0	2.23042E-1
3.05380E-2	1.03669E+0	1.63501E-1
3.06892E-2	1.00247E+0	1.30178E-1
3.08418E-2	9.77185E-1	1.29965E-1
3.09960E-2	9.62203E-1	1.33548E-1
3.11518E-2	9.61764E-1	1.34129E-1
3.13091E-2	9.53886E-1	1.29995E-1
3.14681E-2	9.42591E-1	1.28370E-1
3.16286E-2	9.39074E-1	1.33642E-1
3.17908E-2	9.35042E-1	1.31545E-1
3.19547E-2	9.33317E-1	1.34467E-1
3.21203E-2	9.30849E-1	1.28377E-1
3.22875E-2	9.24523E-1	1.25470E-1
3.24566E-2	9.15551E-1	1.23423E-1
3.26274E-2	9.04791E-1	1.21022E-1
3.28000E-2	8.91667E-1	1.30654E-1
3.29745E-2	8.88267E-1	1.37909E-1
3.31509E-2	8.86751E-1	1.46039E-1
3.33291E-2	8.87847E-1	1.49237E-1
3.35092E-2	8.85746E-1	1.50156E-1
3.36914E-2	8.80530E-1	1.52749E-1
3.38755E-2	8.77704E-1	1.56089E-1
3.40616E-2	8.72670E-1	1.59854E-1
3.42498E-2	8.70022E-1	1.70111E-1
3.44401E-2	8.72555E-1	1.77066E-1
3.46325E-2	8.79477E-1	1.80221E-1
3.48270E-2	8.80887E-1	1.75959E-1
3.50238E-2	8.81761E-1	1.74650E-1
3.52228E-2	8.72993E-1	1.73541E-1
3.54241E-2	8.70456E-1	1.75196E-1
3.56276E-2	8.66256E-1	1.77199E-1
3.58336E-2	8.67956E-1	1.82613E-1
3.60419E-2	8.64058E-1	1.80543E-1
3.62527E-2	8.56029E-1	1.81069E-1
3.64659E-2	8.55242E-1	1.88251E-1
3.66817E-2	8.47532E-1	1.90553E-1
3.69001E-2	8.50873E-1	1.97444E-1
3.71210E-2	8.45795E-1	1.93309E-1
3.73446E-2	8.30763E-1	2.00418E-1
3.75710E-2	8.27372E-1	2.15743E-1
3.78001E-2	8.23545E-1	2.30710E-1
3.80320E-2	8.33925E-1	2.45826E-1
3.82667E-2	8.45823E-1	2.51826E-1
3.85044E-2	8.58369E-1	2.54553E-1
3.87451E-2	8.65911E-1	2.50603E-1
3.89887E-2	8.69127E-1	2.41622E-1
3.92355E-2	8.66155E-1	2.41296E-1
3.94854E-2	8.64920E-1	2.34704E-1
3.97385E-2	8.59574E-1	2.32092E-1
3.99949E-2	8.51908E-1	2.31833E-1
4.02546E-2	8.43029E-1	2.40205E-1
4.05177E-2	8.47070E-1	2.52045E-1
4.07843E-2	8.54796E-1	2.50352E-1
4.10544E-2	8.54625E-1	2.41627E-1
4.13281E-2	8.38846E-1	2.29482E-1
4.16054E-2	8.19883E-1	2.43327E-1
4.18865E-2	8.17245E-1	2.62467E-1
4.21715E-2	8.19207E-1	2.72214E-1
4.24603E-2	8.27417E-1	2.80391E-1
4.27532E-2	8.26499E-1	2.75862E-1
4.30501E-2	8.20165E-1	2.82260E-1
4.33511E-2	8.21862E-1	2.87153E-1
4.36564E-2	8.12615E-1	2.90420E-1
4.39660E-2	8.14526E-1	3.05699E-1
4.42801E-2	8.18157E-1	3.10454E-1
4.45986E-2	8.21422E-1	3.18959E-1
4.49218E-2	8.22722E-1	3.16024E-1
4.52497E-2	8.17041E-1	3.13938E-1
4.55824E-2	8.12087E-1	3.23241E-1
4.59201E-2	8.09451E-1	3.30471E-1
4.62628E-2	8.01905E-1	3.39192E-1
4.66106E-2	8.06143E-1	3.54776E-1
4.69637E-2	8.03833E-1	3.55173E-1
4.73222E-2	8.00741E-1	3.78399E-1
4.76862E-2	8.25301E-1	3.92584E-1
4.80559E-2	8.35815E-1	3.76280E-1
4.84313E-2	8.20793E-1	3.64282E-1
4.88127E-2	7.90149E-1	3.74613E-1
4.92001E-2	7.95267E-1	4.05524E-1
4.95937E-2	7.71895E-1	4.21689E-1
4.99936E-2	7.98892E-1	4.93183E-1
5.04001E-2	8.34728E-1	4.97767E-1
5.08132E-2	8.83993E-1	5.11316E-1
5.12331E-2	9.29302E-1	4.66479E-1
5.16601E-2	9.24227E-1	4.26843E-1
5.20942E-2	9.15991E-1	4.21947E-1
5.25357E-2	9.09415E-1	4.12353E-1
5.29847E-2	8.98094E-1	4.01962E-1
5.34415E-2	8.85668E-1	3.98005E-1
5.39062E-2	8.64239E-1	3.85888E-1
5.43790E-2	8.48064E-1	4.28034E-1
5.48603E-2	8.58141E-1	4.31747E-1
5.53501E-2	8.66256E-1	4.32897E-1
5.58487E-2	8.66267E-1	4.28274E-1
5.63564E-2	8.60233E-1	4.28953E-1
5.68735E-2	8.44515E-1	4.19768E-1
5.74001E-2	8.21919E-1	4.31916E-1
5.79365E-2	8.15349E-1	4.62379E-1
5.84831E-2	8.01777E-1	4.64593E-1
5.90401E-2	7.93671E-1	5.14697E-1
5.96078E-2	8.15947E-1	5.44766E-1
6.01865E-2	8.46501E-1	5.19196E-1
6.07766E-2	8.44199E-1	5.53779E-1
6.13783E-2	8.60731E-1	5.40239E-1
6.19921E-2	8.44087E-1	5.34305E-1
6.26183E-2	8.44444E-1	5.59540E-1
6.32572E-2	8.68348E-1	5.66593E-1
6.39094E-2	8.58014E-1	5.39618E-1
6.45751E-2	8.19615E-1	5.46598E-1
6.52548E-2	8.01919E-1	5.94200E-1
6.59490E-2	8.24921E-1	6.35212E-1
6.66582E-2	8.43716E-1	6.27581E-1
6.73827E-2	8.22179E-1	6.43412E-1
6.81232E-2	8.28853E-1	7.06398E-1
6.88801E-2	8.62786E-1	7.22080E-1
6.96540E-2	8.82898E-1	7.34513E-1
7.04456E-2	9.33856E-1	7.72067E-1
7.12553E-2	9.91321E-1	7.27817E-1
7.20838E-2	9.84626E-1	6.83000E-1
7.29319E-2	9.66648E-1	6.63633E-1
7.38001E-2	9.29184E-1	6.68867E-1
7.46893E-2	9.34751E-1	7.01256E-1
7.56001E-2	9.26231E-1	6.79636E-1
7.65334E-2	8.94975E-1	7.13428E-1
7.74901E-2	8.84864E-1	7.17624E-1
7.84710E-2	8.55120E-1	7.74745E-1
7.94770E-2	8.73771E-1	8.42898E-1
8.05092E-2	9.49701E-1	9.20289E-1
8.15685E-2	1.03777E+0	8.50863E-1
8.26561E-2	9.95012E-1	8.05015E-1
8.37731E-2	9.53729E-1	8.04736E-1
8.49207E-2	8.99981E-1	8.69463E-1
8.61001E-2	9.16789E-1	9.15151E-1
8.73128E-2	9.30159E-1	1.00359E+0
8.85601E-2	9.83899E-1	1.07938E+0
8.98436E-2	1.11095E+0	1.09051E+0
9.11648E-2	1.13642E+0	1.02735E+0
9.25255E-2	1.11822E+0	1.01903E+0
9.39274E-2	1.12731E+0	1.07556E+0
9.53725E-2	1.20393E+0	1.12091E+0
9.68626E-2	1.28571E+0	1.07567E+0
9.84001E-2	1.34533E+0	1.00644E+0
9.99872E-2	1.24971E+0	9.69423E-1
1.01626E-1	1.21177E+0	9.82033E-1
1.03320E-1	1.24249E+0	9.44875E-1
1.05071E-1	1.10794E+0	1.04428E+0
1.06883E-1	1.09893E+0	1.15613E+0
1.08758E-1	1.16612E+0	1.24130E+0
1.10700E-1	1.25221E+0	1.39034E+0
1.12713E-1	1.43935E+0	1.33706E+0
1.14800E-1	1.44599E+0	1.33300E+0
1.16966E-1	1.61683E+0	1.37337E+0
1.19216E-1	1.55366E+0	1.20618E+0
1.21553E-1	1.54732E+0	1.39757E+0
1.23984E-1	1.71887E+0	1.37096E+0
1.26514E-1	1.75167E+0	1.44234E+0
1.29150E-1	1.91476E+0	1.37015E+0
1.31898E-1	2.02410E+0	1.36234E+0
1.34765E-1	2.13084E+0	1.22698E+0
1.37760E-1	2.15495E+0	1.15664E+0
1.40891E-1	2.16656E+0	1.08167E+0
1.44168E-1	2.18673E+0	9.76114E-1
1.47600E-1	2.18121E+0	9.87756E-1
1.51200E-1	2.21897E+0	9.44358E-1
1.54980E-1	2.25799E+0	8.85742E-1
1.58954E-1	2.27176E+0	9.13170E-1
1.63137E-1	2.44756E+0	7.76895E-1
1.67546E-1	2.42832E+0	6.46331E-1
1.72200E-1	2.38825E+0	4.55773E-1
1.77120E-1	2.23399E+0	3.75114E-1
1.82330E-1	2.14547E+0	4.01310E-1
1.87855E-1	2.13781E+0	4.06491E-1
1.93725E-1	2.08609E+0	3.79178E-1
1.99974E-1	2.02733E+0	3.57860E-1
2.06640E-1	1.95296E+0	3.84800E-1
2.13766E-1	1.88588E+0	4.63180E-1
2.21400E-1	1.88380E+0	5.73311E-1
2.29600E-1	2.02048E+0	6.38216E-1
2.38431E-1	2.05911E+0	6.13129E-1
2.47968E-1	2.05779E+0	5.91169E-1
2.58300E-1	2.08793E+0	6.67409E-1
2.69531E-1	2.24887E+0	7.13026E-1
2.81782E-1	2.36334E+0	6.17558E-1
2.95200E-1	2.44590E+0	5.12285E-1
3.09960E-1	2.44672E+0	3.87866E-1
3.26274E-1	2.42013E+0	2.38830E-1
3.44401E-1	2.32894E+0	2.77380E-1
3.64659E-1	2.46763E+0	2.45377E-1
3.87451E-1	2.39590E+0	7.95109E-2
4.13281E-1	2.31354E+0	3.82531E-2
4.42801E-1	2.25596E+0	1.86174E-2
4.76862E-1	2.21227E+0	1.22046E-2
5.16601E-1	2.17970E+0	9.17558E-3
5.63564E-1	2.15454E+0	7.42617E-3
6.19921E-1	2.13402E+0	6.09179E-3
6.88801E-1	2.11708E+0	4.95966E-3
7.74901E-1	2.10310E+0	4.04166E-3
8.85601E-1	2.09165E+0	3.34664E-3
1.03320E+0	2.08207E+0	2.88175E-3
1.23984E+0	2.07437E+0	2.16933E-3
1.54980E+0	2.06809E+0	1.69238E-3
2.06640E+0	2.06349E+0	1.21154E-3
3.09960E+0	2.06034E+0	7.28035E-4
6.19921E+0	2.05840E+0	4.85815E-4
