Material: main / MoO3 / Stelling
Optical constants. C. Stelling, C. R. Singh, M. Karg, T. A. F. König, M. Thelakkat, M. Retsch. Plasmonic nanomeshes: their ambivalent role as transparent electrodes in organic solar cells, Sci. Rep. 7, 42530 (2017) - see Supplementary materials(Numerical data kindly provided by Tobias König)
Comments: Isotropic MoO3> film.
wavelength (um)	n	k
0.30082	2.17200	2.8455E-1
0.30246	2.16643	2.7038E-1
0.30411	2.16097	2.5706E-1
0.30575	2.15562	2.4452E-1
0.30739	2.15037	2.3272E-1
0.30904	2.14522	2.2161E-1
0.31068	2.14016	2.1114E-1
0.31232	2.13521	2.0126E-1
0.31397	2.13034	1.9194E-1
0.31561	2.12557	1.8314E-1
0.31726	2.12088	1.7483E-1
0.31890	2.11629	1.6698E-1
0.32054	2.11177	1.5955E-1
0.32219	2.10734	1.5253E-1
0.32383	2.10299	1.4588E-1
0.32548	2.09872	1.3958E-1
0.32712	2.09452	1.3362E-1
0.32877	2.09040	1.2796E-1
0.33041	2.08635	1.2260E-1
0.33206	2.08237	1.1751E-1
0.33370	2.07846	1.1268E-1
0.33535	2.07462	1.0809E-1
0.33699	2.07085	1.0373E-1
0.33864	2.06714	9.9590E-2
0.34028	2.06349	9.5650E-2
0.34193	2.05991	9.1900E-2
0.34357	2.05639	8.8330E-2
0.34522	2.05292	8.4930E-2
0.34686	2.04951	8.1700E-2
0.34851	2.04616	7.8610E-2
0.35015	2.04287	7.5670E-2
0.35180	2.03963	7.2870E-2
0.35344	2.03644	7.0190E-2
0.35509	2.03330	6.7640E-2
0.35673	2.03021	6.5200E-2
0.35838	2.02718	6.2870E-2
0.36002	2.02419	6.0640E-2
0.36167	2.02125	5.8510E-2
0.36332	2.01835	5.6470E-2
0.36496	2.01550	5.4530E-2
0.36661	2.01270	5.2660E-2
0.36825	2.00993	5.0880E-2
0.36990	2.00722	4.9170E-2
0.37154	2.00454	4.7530E-2
0.37319	2.00190	4.5960E-2
0.37484	1.99931	4.4460E-2
0.37648	1.99675	4.3020E-2
0.37813	1.99423	4.1630E-2
0.37977	1.99175	4.0300E-2
0.38142	1.98930	3.9030E-2
0.38306	1.98690	3.7810E-2
0.38471	1.98452	3.6630E-2
0.38636	1.98219	3.5500E-2
0.38800	1.97988	3.4420E-2
0.38965	1.97761	3.3370E-2
0.39129	1.97538	3.2370E-2
0.39294	1.97317	3.1400E-2
0.39459	1.97100	3.0480E-2
0.39623	1.96885	2.9580E-2
0.39788	1.96674	2.8720E-2
0.39952	1.96466	2.7890E-2
0.40117	1.96260	2.7090E-2
0.40282	1.96058	2.6320E-2
0.40446	1.95858	2.5580E-2
0.40611	1.95661	2.4870E-2
0.40775	1.95467	2.4180E-2
0.40940	1.95275	2.3510E-2
0.41105	1.95087	2.2870E-2
0.41269	1.94900	2.2250E-2
0.41434	1.94716	2.1660E-2
0.41598	1.94535	2.1080E-2
0.41763	1.94356	2.0520E-2
0.41928	1.94179	1.9980E-2
0.42092	1.94005	1.9460E-2
0.42257	1.93833	1.8960E-2
0.42421	1.93663	1.8470E-2
0.42586	1.93496	1.8000E-2
0.42751	1.93331	1.7550E-2
0.42915	1.93167	1.7110E-2
0.43080	1.93006	1.6690E-2
0.43244	1.92847	1.6270E-2
0.43409	1.92690	1.5870E-2
0.43573	1.92535	1.5490E-2
0.43738	1.92382	1.5120E-2
0.43903	1.92231	1.4750E-2
0.44067	1.92082	1.4400E-2
0.44232	1.91935	1.4060E-2
0.44396	1.91789	1.3730E-2
0.44561	1.91646	1.3410E-2
0.44725	1.91504	1.3100E-2
0.44890	1.91364	1.2800E-2
0.45054	1.91225	1.2510E-2
0.45219	1.91088	1.2230E-2
0.45383	1.90953	1.1960E-2
0.45548	1.90820	1.1690E-2
0.45713	1.90688	1.1430E-2
0.45877	1.90558	1.1180E-2
0.46042	1.90429	1.0940E-2
0.46206	1.90302	1.0700E-2
0.46371	1.90176	1.0470E-2
0.46535	1.90052	1.0250E-2
0.46700	1.89929	1.0030E-2
0.46864	1.89808	9.8200E-3
0.47029	1.89688	9.6100E-3
0.47193	1.89569	9.4200E-3
0.47358	1.89452	9.2200E-3
0.47522	1.89336	9.0300E-3
0.47686	1.89222	8.8500E-3
0.47851	1.89109	8.6700E-3
0.48015	1.88997	8.5000E-3
0.48180	1.88886	8.3300E-3
0.48344	1.88777	8.1600E-3
0.48509	1.88669	8.0000E-3
0.48673	1.88562	7.8500E-3
0.48838	1.88456	7.7000E-3
0.49002	1.88352	7.5500E-3
0.49166	1.88248	7.4000E-3
0.49331	1.88146	7.2600E-3
0.49495	1.88045	7.1300E-3
0.49660	1.87945	6.9900E-3
0.49824	1.87846	6.8600E-3
0.49988	1.87748	6.7300E-3
0.50153	1.87651	6.6100E-3
0.50317	1.87556	6.4900E-3
0.50481	1.87461	6.3700E-3
0.50646	1.87367	6.2600E-3
0.50810	1.87274	6.1500E-3
0.50974	1.87183	6.0400E-3
0.51139	1.87092	5.9300E-3
0.51303	1.87002	5.8300E-3
0.51467	1.86913	5.7200E-3
0.51632	1.86825	5.6200E-3
0.51796	1.86738	5.5300E-3
0.51960	1.86652	5.4300E-3
0.52125	1.86567	5.3400E-3
0.52289	1.86483	5.2500E-3
0.52453	1.86399	5.1600E-3
0.52617	1.86317	5.0800E-3
0.52782	1.86235	4.9900E-3
0.52946	1.86154	4.9100E-3
0.53110	1.86074	4.8300E-3
0.53274	1.85994	4.7500E-3
0.53438	1.85916	4.6700E-3
0.53603	1.85838	4.6000E-3
0.53767	1.85761	4.5300E-3
0.53931	1.85685	4.4500E-3
0.54095	1.85610	4.3800E-3
0.54259	1.85535	4.3100E-3
0.54423	1.85461	4.2500E-3
0.54587	1.85388	4.1800E-3
0.54752	1.85315	4.1200E-3
0.54916	1.85244	4.0500E-3
0.55080	1.85173	3.9900E-3
0.55244	1.85102	3.9300E-3
0.55408	1.85032	3.8700E-3
0.55572	1.84963	3.8100E-3
0.55736	1.84895	3.7600E-3
0.55900	1.84827	3.7000E-3
0.56064	1.84760	3.6500E-3
0.56228	1.84694	3.5900E-3
0.56392	1.84628	3.5400E-3
0.56556	1.84563	3.4900E-3
0.56720	1.84498	3.4400E-3
0.56884	1.84434	3.3900E-3
0.57048	1.84371	3.3400E-3
0.57212	1.84308	3.3000E-3
0.57376	1.84246	3.2500E-3
0.57540	1.84184	3.2100E-3
0.57704	1.84123	3.1600E-3
0.57867	1.84063	3.1200E-3
0.58031	1.84003	3.0700E-3
0.58195	1.83943	3.0300E-3
0.58359	1.83885	2.9900E-3
0.58523	1.83826	2.9500E-3
0.58687	1.83768	2.9100E-3
0.58851	1.83711	2.8700E-3
0.59014	1.83654	2.8300E-3
0.59178	1.83598	2.8000E-3
0.59342	1.83542	2.7600E-3
0.59506	1.83487	2.7200E-3
0.59669	1.83432	2.6900E-3
0.59833	1.83378	2.6600E-3
0.59997	1.83324	2.6200E-3
0.60161	1.83271	2.5900E-3
0.60324	1.83218	2.5500E-3
0.60488	1.83166	2.5200E-3
0.60652	1.83114	2.4900E-3
0.60815	1.83063	2.4600E-3
0.60979	1.83012	2.4300E-3
0.61142	1.82961	2.4000E-3
0.61306	1.82911	2.3700E-3
0.61470	1.82861	2.3400E-3
0.61633	1.82812	2.3100E-3
0.61797	1.82763	2.2800E-3
0.61960	1.82715	2.2600E-3
0.62124	1.82667	2.2300E-3
0.62287	1.82619	2.2000E-3
0.62451	1.82572	2.1800E-3
0.62614	1.82525	2.1500E-3
0.62778	1.82479	2.1300E-3
0.62941	1.82432	2.1000E-3
0.63105	1.82387	2.0800E-3
0.63268	1.82342	2.0500E-3
0.63431	1.82297	2.0300E-3
0.63595	1.82252	2.0100E-3
0.63758	1.82208	1.9800E-3
0.63921	1.82164	1.9600E-3
0.64085	1.82121	1.9400E-3
0.64248	1.82078	1.9200E-3
0.64411	1.82035	1.9000E-3
0.64575	1.81993	1.8800E-3
0.64738	1.81951	1.8600E-3
0.64901	1.81909	1.8400E-3
0.65064	1.81868	1.8200E-3
0.65228	1.81827	1.8000E-3
0.65391	1.81786	1.7800E-3
0.65554	1.81746	1.7600E-3
0.65717	1.81706	1.7400E-3
0.65880	1.81666	1.7200E-3
0.66043	1.81626	1.7000E-3
0.66207	1.81587	1.6800E-3
0.66370	1.81549	1.6700E-3
0.66533	1.81510	1.6500E-3
0.66696	1.81472	1.6300E-3
0.66859	1.81434	1.6200E-3
0.67022	1.81396	1.6000E-3
0.67185	1.81359	1.5800E-3
0.67348	1.81322	1.5700E-3
0.67511	1.81285	1.5500E-3
0.67674	1.81249	1.5400E-3
0.67837	1.81213	1.5200E-3
0.67999	1.81177	1.5100E-3
0.68162	1.81141	1.4900E-3
0.68325	1.81106	1.4800E-3
0.68488	1.81071	1.4600E-3
0.68651	1.81036	1.4500E-3
0.68814	1.81002	1.4300E-3
0.68977	1.80968	1.4200E-3
0.69139	1.80934	1.4100E-3
0.69302	1.80900	1.3900E-3
0.69465	1.80866	1.3800E-3
0.69627	1.80833	1.3700E-3
0.69790	1.80800	1.3500E-3
0.69953	1.80767	1.3400E-3
0.70115	1.80735	1.3300E-3
0.70278	1.80703	1.3200E-3
0.70441	1.80671	1.3000E-3
0.70603	1.80639	1.2900E-3
0.70766	1.80607	1.2800E-3
0.70928	1.80576	1.2700E-3
0.71091	1.80545	1.2600E-3
0.71253	1.80514	1.2400E-3
0.71416	1.80484	1.2300E-3
0.71578	1.80453	1.2200E-3
0.71741	1.80423	1.2100E-3
0.71903	1.80393	1.2000E-3
0.72066	1.80363	1.1900E-3
0.72228	1.80334	1.1800E-3
0.72390	1.80304	1.1700E-3
0.72553	1.80275	1.1600E-3
0.72715	1.80246	1.1500E-3
0.72877	1.80218	1.1400E-3
0.73040	1.80189	1.1300E-3
0.73202	1.80161	1.1200E-3
0.73364	1.80133	1.1100E-3
0.73526	1.80105	1.1000E-3
0.73689	1.80077	1.0900E-3
0.73851	1.80050	1.0800E-3
0.74013	1.80022	1.0700E-3
0.74175	1.79995	1.0600E-3
0.74337	1.79968	1.0600E-3
0.74499	1.79942	1.0500E-3
0.74661	1.79915	1.0400E-3
0.74823	1.79889	1.0300E-3
0.74985	1.79863	1.0200E-3
0.75147	1.79837	1.0100E-3
0.75309	1.79811	1.0100E-3
0.75471	1.79785	9.9712E-4
0.75633	1.79760	9.8915E-4
0.75795	1.79734	9.8128E-4
0.75957	1.79709	9.7351E-4
0.76119	1.79684	9.6583E-4
0.76281	1.79660	9.5825E-4
0.76442	1.79635	9.5076E-4
0.76604	1.79611	9.4336E-4
0.76766	1.79586	9.3605E-4
0.76928	1.79562	9.2883E-4
0.77089	1.79538	9.2170E-4
0.77251	1.79514	9.1465E-4
0.77413	1.79491	9.0768E-4
0.77574	1.79467	9.0080E-4
0.77736	1.79444	8.9399E-4
0.77898	1.79421	8.8727E-4
0.78059	1.79398	8.8063E-4
0.78221	1.79375	8.7407E-4
0.78382	1.79352	8.6758E-4
0.78544	1.79330	8.6117E-4
0.78705	1.79307	8.5483E-4
0.78867	1.79285	8.4856E-4
0.79028	1.79263	8.4237E-4
0.79190	1.79241	8.3625E-4
0.79351	1.79219	8.3020E-4
0.79512	1.79197	8.2422E-4
0.79674	1.79176	8.1830E-4
0.79835	1.79154	8.1245E-4
0.79996	1.79133	8.0667E-4
0.80158	1.79112	8.0096E-4
0.80319	1.79091	7.9530E-4
0.80480	1.79070	7.8971E-4
0.80641	1.79049	7.8419E-4
0.80802	1.79029	7.7872E-4
0.80963	1.79008	7.7332E-4
0.81125	1.78988	7.6797E-4
0.81286	1.78968	7.6268E-4
0.81447	1.78948	7.5746E-4
0.81608	1.78928	7.5228E-4
0.81769	1.78908	7.4717E-4
0.81930	1.78888	7.4211E-4
0.82091	1.78869	7.3710E-4
0.82252	1.78849	7.3215E-4
0.82412	1.78830	7.2725E-4
0.82573	1.78811	7.2241E-4
0.82734	1.78791	7.1761E-4
0.82895	1.78772	7.1287E-4
0.83056	1.78754	7.0818E-4
0.83217	1.78735	7.0353E-4
0.83377	1.78716	6.9894E-4
0.83538	1.78698	6.9439E-4
0.83699	1.78679	6.8990E-4
0.83859	1.78661	6.8544E-4
0.84020	1.78643	6.8104E-4
0.84181	1.78625	6.7668E-4
0.84341	1.78607	6.7236E-4
0.84502	1.78589	6.6809E-4
0.84662	1.78571	6.6387E-4
0.84823	1.78554	6.5969E-4
0.84983	1.78536	6.5555E-4
0.85144	1.78519	6.5145E-4
0.85304	1.78501	6.4739E-4
0.85465	1.78484	6.4338E-4
0.85625	1.78467	6.3940E-4
0.85785	1.78450	6.3547E-4
0.85946	1.78433	6.3157E-4
0.86106	1.78416	6.2771E-4
0.86266	1.78400	6.2390E-4
0.86426	1.78383	6.2012E-4
0.86587	1.78366	6.1637E-4
0.86747	1.78350	6.1267E-4
0.86907	1.78334	6.0900E-4
0.87067	1.78318	6.0536E-4
0.87227	1.78301	6.0176E-4
0.87387	1.78285	5.9820E-4
0.87547	1.78269	5.9467E-4
0.87707	1.78254	5.9118E-4
0.87867	1.78238	5.8772E-4
0.88027	1.78222	5.8429E-4
0.88187	1.78207	5.8090E-4
0.88347	1.78191	5.7754E-4
0.88507	1.78176	5.7421E-4
0.88667	1.78160	5.7091E-4
0.88827	1.78145	5.6764E-4
0.88986	1.78130	5.6441E-4
0.89146	1.78115	5.6120E-4
0.89306	1.78100	5.5802E-4
0.89466	1.78085	5.5488E-4
0.89625	1.78071	5.5176E-4
0.89785	1.78056	5.4868E-4
0.89945	1.78041	5.4562E-4
