Material: main / MoO3 / Vos
Optical constants. M. Vos, B. Macco, N. F. W. Thissen, A. A. Bol, W. M. M. Kessels. Atomic layer deposition of molybdenum oxide from (NtBu)2(NMe2)2Mo and O2 plasma, J. Vac. Scia. Technol. A 34, 01A103 (2016)
Comments: Amorphous MoO3 deposited with ALD at 200 Â°C.
wavelength (um)	n	k
0.190654	1.793462	0.790551
0.193836	1.794053	0.800597
0.197018	1.797305	0.812479
0.200200	1.803299	0.825667
0.203382	1.812044	0.839673
0.206564	1.823488	0.854051
0.209747	1.837534	0.868405
0.212930	1.854050	0.882384
0.216113	1.872880	0.895682
0.219297	1.893848	0.908032
0.222480	1.916768	0.919205
0.225664	1.941447	0.929002
0.228848	1.967686	0.937257
0.232033	1.995283	0.943828
0.235217	2.024034	0.948595
0.238402	2.053735	0.951464
0.241587	2.084182	0.952359
0.244772	2.115168	0.951222
0.247957	2.146489	0.948018
0.251143	2.177943	0.942727
0.254329	2.209328	0.935351
0.257515	2.240447	0.925909
0.260701	2.271107	0.914438
0.263887	2.301124	0.900995
0.267073	2.330318	0.885654
0.270260	2.358525	0.868506
0.273447	2.385588	0.849657
0.276634	2.411367	0.829229
0.279821	2.435736	0.807355
0.283008	2.458587	0.784180
0.286195	2.479830	0.759856
0.289383	2.499392	0.734542
0.292571	2.517221	0.708399
0.295758	2.533282	0.681590
0.298946	2.547557	0.654275
0.302134	2.560050	0.626612
0.305323	2.570775	0.598752
0.308511	2.579764	0.570838
0.311699	2.587062	0.543006
0.314888	2.592725	0.515381
0.318077	2.596816	0.488076
0.321265	2.599409	0.461195
0.324454	2.600582	0.434829
0.327643	2.600419	0.409059
0.330832	2.599003	0.383953
0.334021	2.596423	0.359570
0.337210	2.592765	0.335958
0.340400	2.588116	0.313158
0.343589	2.582561	0.291198
0.346778	2.576183	0.270102
0.349968	2.569060	0.249885
0.353157	2.561269	0.230557
0.356347	2.552883	0.212120
0.359536	2.543972	0.194575
0.362726	2.534600	0.177915
0.365916	2.524829	0.162133
0.369106	2.514716	0.147215
0.372295	2.504316	0.133149
0.375485	2.493678	0.119918
0.378675	2.482850	0.107505
0.381865	2.471875	0.095889
0.385055	2.460794	0.085053
0.388245	2.449645	0.074975
0.391435	2.438463	0.065635
0.394625	2.427281	0.057011
0.397815	2.416130	0.049083
0.401005	2.405039	0.041829
0.404194	2.394036	0.035230
0.407384	2.383146	0.029264
0.410574	2.372395	0.023912
0.413764	2.361806	0.019154
0.416954	2.351403	0.014971
0.420144	2.341212	0.011345
0.423334	2.331254	0.008256
0.426523	2.321557	0.005688
0.429713	2.312148	0.003624
0.432903	2.303058	0.002047
0.436093	2.294327	0.000941
0.439282	2.286007	0.000289
0.442472	2.278196	0.000078
0.445661	2.271073	0.000092
0.448851	2.264444	0.000109
0.452040	2.258195	0.000128
0.455229	2.252266	0.000151
0.458419	2.246615	0.000178
0.461608	2.241210	0.000209
0.464797	2.236026	0.000244
0.467986	2.231042	0.000285
0.471175	2.226239	0.000331
0.474363	2.221604	0.000383
0.477552	2.217122	0.000442
0.480741	2.212781	0.000508
0.483929	2.208572	0.000583
0.487117	2.204485	0.000665
0.490306	2.200511	0.000758
0.493494	2.196644	0.000860
0.496682	2.192876	0.000973
0.499870	2.189200	0.001098
0.503058	2.185612	0.001235
0.506245	2.182107	0.001385
0.509433	2.178679	0.001549
0.512620	2.175324	0.001727
0.515807	2.172039	0.001922
0.518994	2.168819	0.002132
0.522181	2.165663	0.002360
0.525368	2.162565	0.002606
0.528554	2.159525	0.002870
0.531741	2.156539	0.003154
0.534927	2.153605	0.003458
0.538113	2.150722	0.003783
0.541299	2.147887	0.004130
0.544484	2.145099	0.004499
0.547670	2.142357	0.004891
0.550855	2.139658	0.005307
0.554040	2.137002	0.005747
0.557225	2.134389	0.006212
0.560410	2.131817	0.006703
0.563595	2.129285	0.007219
0.566779	2.126793	0.007762
0.569963	2.124340	0.008331
0.573147	2.121926	0.008927
0.576330	2.119550	0.009550
0.579514	2.117213	0.010201
0.582697	2.114914	0.010880
0.585880	2.112653	0.011586
0.589063	2.110430	0.012321
0.592245	2.108246	0.013083
0.595427	2.106099	0.013873
0.598609	2.103991	0.014691
0.601791	2.101921	0.015537
0.604972	2.099889	0.016410
0.608153	2.097896	0.017311
0.611334	2.095943	0.018239
0.614515	2.094028	0.019193
0.617695	2.092154	0.020174
0.620875	2.090319	0.021180
0.624055	2.088525	0.022212
0.627235	2.086771	0.023269
0.630414	2.085057	0.024350
0.633593	2.083385	0.025454
0.636771	2.081754	0.026582
0.639950	2.080165	0.027732
0.643128	2.078618	0.028904
0.646305	2.077113	0.030097
0.649483	2.075650	0.031309
0.652660	2.074230	0.032541
0.655836	2.072853	0.033792
0.659013	2.071519	0.035060
0.662189	2.070228	0.036345
0.665365	2.068980	0.037646
0.668540	2.067776	0.038961
0.671715	2.066615	0.040291
0.674890	2.065497	0.041633
0.678064	2.064423	0.042988
0.681238	2.063392	0.044354
0.684412	2.062405	0.045729
0.687585	2.061461	0.047114
0.690758	2.060560	0.048507
0.693930	2.059703	0.049908
0.697102	2.058888	0.051314
0.700274	2.058116	0.052726
0.703446	2.057386	0.054142
0.706617	2.056698	0.055561
0.709787	2.056053	0.056983
0.712957	2.055449	0.058406
0.716127	2.054886	0.059829
0.719297	2.054363	0.061252
0.722466	2.053882	0.062673
0.725634	2.053440	0.064093
0.728802	2.053038	0.065509
0.731970	2.052675	0.066921
0.735138	2.052350	0.068328
0.738304	2.052064	0.069730
0.741471	2.051815	0.071125
0.744637	2.051603	0.072513
0.747803	2.051428	0.073894
0.750968	2.051288	0.075265
0.754132	2.051183	0.076627
0.757297	2.051114	0.077979
0.760460	2.051078	0.079320
0.763624	2.051075	0.080649
0.766787	2.051105	0.081967
0.769949	2.051167	0.083272
0.773111	2.051260	0.084564
0.776273	2.051384	0.085842
0.779434	2.051538	0.087106
0.782594	2.051721	0.088356
0.785754	2.051933	0.089590
0.788914	2.052172	0.090808
0.792073	2.052439	0.092011
0.795231	2.052732	0.093197
0.798389	2.053051	0.094366
0.801547	2.053394	0.095518
0.804704	2.053762	0.096653
0.807860	2.054154	0.097770
0.811016	2.054568	0.098869
0.814172	2.055005	0.099950
0.817327	2.055463	0.101012
0.820481	2.055942	0.102055
0.823635	2.056441	0.103079
0.826788	2.056959	0.104085
0.829941	2.057496	0.105071
0.833093	2.058051	0.106038
0.836245	2.058624	0.106985
0.839396	2.059213	0.107912
0.842547	2.059818	0.108820
0.845697	2.060439	0.109708
0.848846	2.061074	0.110577
0.851995	2.061723	0.111425
0.855143	2.062387	0.112254
0.858291	2.063063	0.113063
0.861438	2.063751	0.113852
0.864585	2.064451	0.114621
0.867731	2.065163	0.115370
0.870876	2.065885	0.116100
0.874021	2.066617	0.116810
0.877165	2.067358	0.117501
0.880309	2.068109	0.118172
0.883452	2.068868	0.118824
0.886594	2.069635	0.119456
0.889736	2.070409	0.120070
0.892877	2.071191	0.120664
0.896018	2.071978	0.121239
0.899158	2.072772	0.121796
0.902297	2.073572	0.122334
0.905436	2.074376	0.122854
0.908574	2.075185	0.123355
0.911711	2.075999	0.123838
0.914848	2.076816	0.124303
0.917984	2.077637	0.124751
0.921119	2.078461	0.125181
0.924254	2.079287	0.125594
0.927388	2.080116	0.125989
0.930521	2.080947	0.126368
0.933654	2.081779	0.126729
0.936786	2.082613	0.127075
0.939918	2.083447	0.127404
0.943048	2.084283	0.127716
0.946178	2.085118	0.128013
0.949308	2.085954	0.128294
0.952436	2.086789	0.128560
0.955564	2.087624	0.128810
0.958691	2.088458	0.129046
0.961818	2.089291	0.129266
0.964944	2.090122	0.129472
0.968069	2.090952	0.129664
0.971193	2.091780	0.129842
0.974317	2.092607	0.130005
0.977440	2.093430	0.130155
0.980562	2.094252	0.130292
0.983683	2.095071	0.130415
0.986804	2.095886	0.130526
0.989924	2.096699	0.130624
0.993043	2.097509	0.130709
0.996162	2.098315	0.130782
0.999280	2.099118	0.130842
