Material: main / H2 / Smith
Optical constants. P. L. Smith, M. C. E. Huber, W. H. Parkinson. Refractivities of H2, He, O2, CO, and Kr for 168≤λ≤288 nm Phys Rev. A 13, 199-203 (1976)
Comments: Standard conditions: 0 °C (273.15 K), 760 torr (101.325 kPa).
Specs: {"n_absolute": true, "wavelength_vacuum": true, "temperature": "0 °C", "pressure": "101325 Pa"}
wavelength (um)	n
0.16797	1.00018910
0.16846	1.00018870
0.16979	1.00018750
0.16991	1.00018740
0.17045	1.00018690
0.17134	1.00018620
0.17223	1.00018540
0.17709	1.00018170
0.18169	1.00017860
0.18475	1.00017670
0.18507	1.00017650
0.18546	1.00017630
0.18627	1.00017580
0.19013	1.00017370
0.19358	1.00017190
0.19776	1.00017000
0.19832	1.00016970
0.19890	1.00016950
0.19905	1.00016940
0.20588	1.00016660
0.21248	1.00016430
0.22089	1.00016160
0.22116	1.00016150
0.22174	1.00016140
0.23029	1.00015910
0.23791	1.00015730
0.24359	1.00015610
0.25077	1.00015470
0.25169	1.00015460
0.25293	1.00015430
0.25356	1.00015420
0.26321	1.00015270
0.27536	1.00015090
0.28824	1.00014940
0.28945	1.00014930
