Material: main / Ru / Windt
Optical constants. D. L. Windt, W. C. Cash, M. Scott, P. Arendt, B. Newnam, R. F. Fisher, A. B. Swartzlander. Optical constants for thin films of Ti, Zr, Nb, Mo, Ru, Rh, Pd, Ag, Hf, Ta, W, Re, Ir, Os, Pt, and Au from 24 Å to 1216 Å, Appl. Opt. 27, 246-278 (1988)
wavelength (um)	n	k
0.00236	0.99668	0.00353
0.00316	0.99698	0.00254
0.00447	0.99546	0.00157
0.00676	0.9840	0.00264
0.01140	0.9417	0.00543
0.01355	0.9023	0.0129
0.01714	0.809	0.125
0.02430	0.870	0.216
0.02563	0.888	0.221
0.03038	0.858	0.140
0.03270	0.805	0.179
0.03568	0.745	0.216
0.03793	0.714	0.292
0.04059	0.681	0.346
0.04478	0.696	0.511
0.04607	0.679	0.553
0.04895	0.739	0.583
0.05391	0.782	0.730
0.05843	0.839	0.831
0.06163	0.930	0.895
0.06714	1.19	0.960
0.07185	1.13	0.831
0.07359	1.21	0.866
0.07437	1.19	0.843
0.08345	1.25	0.772
0.08780	1.23	0.772
0.09198	1.24	0.745
0.09321	1.29	0.727
0.09888	1.26	0.694
0.10258	1.19	0.634
0.10482	1.14	0.637
0.10667	1.14	0.616
0.10857	1.02	0.564
0.11350	1.05	0.574
0.12007	0.983	0.589
0.12157	0.906	0.590
