Material: main / GaAs / Ozaki
Optical constants. S. Ozaki and S. Adachi. Spectroscopic ellipsometry and thermoreflectance of GaAs, J. Appl. Phys. 78, 3380-3386 (1995)[Calculation script (Python)]
Comments: Fit of author's experimental data to a simplified model of the interband transitions (MDF). Room Temperature.
wavelength (um)	n	k
2.2140e-01	1.4871e+00	2.7165e+00
2.2210e-01	1.4902e+00	2.7423e+00
2.2280e-01	1.4941e+00	2.7687e+00
2.2351e-01	1.4987e+00	2.7957e+00
2.2422e-01	1.5042e+00	2.8233e+00
2.2494e-01	1.5106e+00	2.8516e+00
2.2566e-01	1.5178e+00	2.8805e+00
2.2639e-01	1.5261e+00	2.9100e+00
2.2712e-01	1.5354e+00	2.9403e+00
2.2786e-01	1.5457e+00	2.9713e+00
2.2860e-01	1.5573e+00	3.0031e+00
2.2935e-01	1.5701e+00	3.0356e+00
2.3010e-01	1.5843e+00	3.0689e+00
2.3085e-01	1.6001e+00	3.1030e+00
2.3161e-01	1.6174e+00	3.1379e+00
2.3238e-01	1.6366e+00	3.1736e+00
2.3315e-01	1.6577e+00	3.2101e+00
2.3392e-01	1.6810e+00	3.2473e+00
2.3470e-01	1.7067e+00	3.2852e+00
2.3549e-01	1.7349e+00	3.3237e+00
2.3628e-01	1.7661e+00	3.3626e+00
2.3708e-01	1.8004e+00	3.4018e+00
2.3788e-01	1.8382e+00	3.4411e+00
2.3869e-01	1.8798e+00	3.4800e+00
2.3950e-01	1.9254e+00	3.5181e+00
2.4032e-01	1.9754e+00	3.5550e+00
2.4114e-01	2.0297e+00	3.5900e+00
2.4197e-01	2.0886e+00	3.6222e+00
2.4281e-01	2.1519e+00	3.6508e+00
2.4365e-01	2.2192e+00	3.6749e+00
2.4450e-01	2.2897e+00	3.6936e+00
2.4535e-01	2.3627e+00	3.7061e+00
2.4621e-01	2.4367e+00	3.7122e+00
2.4708e-01	2.5105e+00	3.7116e+00
2.4795e-01	2.5828e+00	3.7048e+00
2.4883e-01	2.6524e+00	3.6928e+00
2.4971e-01	2.7187e+00	3.6765e+00
2.5060e-01	2.7815e+00	3.6573e+00
2.5150e-01	2.8411e+00	3.6361e+00
2.5240e-01	2.8981e+00	3.6137e+00
2.5331e-01	2.9532e+00	3.5905e+00
2.5422e-01	3.0071e+00	3.5664e+00
2.5515e-01	3.0603e+00	3.5411e+00
2.5608e-01	3.1129e+00	3.5141e+00
2.5701e-01	3.1650e+00	3.4850e+00
2.5796e-01	3.2162e+00	3.4534e+00
2.5891e-01	3.2661e+00	3.4189e+00
2.5986e-01	3.3142e+00	3.3814e+00
2.6083e-01	3.3598e+00	3.3412e+00
2.6180e-01	3.4023e+00	3.2986e+00
2.6278e-01	3.4415e+00	3.2540e+00
2.6376e-01	3.4771e+00	3.2080e+00
2.6476e-01	3.5089e+00	3.1613e+00
2.6576e-01	3.5371e+00	3.1144e+00
2.6676e-01	3.5619e+00	3.0678e+00
2.6778e-01	3.5836e+00	3.0221e+00
2.6880e-01	3.6027e+00	2.9775e+00
2.6984e-01	3.6197e+00	2.9341e+00
2.7088e-01	3.6350e+00	2.8919e+00
2.7192e-01	3.6488e+00	2.8510e+00
2.7298e-01	3.6617e+00	2.8110e+00
2.7404e-01	3.6737e+00	2.7718e+00
2.7512e-01	3.6849e+00	2.7331e+00
2.7620e-01	3.6954e+00	2.6946e+00
2.7729e-01	3.7050e+00	2.6561e+00
2.7838e-01	3.7136e+00	2.6175e+00
2.7949e-01	3.7209e+00	2.5788e+00
2.8061e-01	3.7268e+00	2.5399e+00
2.8173e-01	3.7310e+00	2.5009e+00
2.8286e-01	3.7333e+00	2.4620e+00
2.8401e-01	3.7337e+00	2.4235e+00
2.8516e-01	3.7320e+00	2.3855e+00
2.8632e-01	3.7283e+00	2.3483e+00
2.8749e-01	3.7225e+00	2.3123e+00
2.8867e-01	3.7150e+00	2.2776e+00
2.8986e-01	3.7057e+00	2.2445e+00
2.9106e-01	3.6949e+00	2.2130e+00
2.9227e-01	3.6828e+00	2.1835e+00
2.9349e-01	3.6696e+00	2.1558e+00
2.9472e-01	3.6555e+00	2.1301e+00
2.9596e-01	3.6408e+00	2.1065e+00
2.9721e-01	3.6257e+00	2.0848e+00
2.9848e-01	3.6102e+00	2.0650e+00
2.9975e-01	3.5947e+00	2.0472e+00
3.0103e-01	3.5793e+00	2.0311e+00
3.0233e-01	3.5640e+00	2.0168e+00
3.0363e-01	3.5490e+00	2.0042e+00
3.0495e-01	3.5344e+00	1.9931e+00
3.0628e-01	3.5203e+00	1.9835e+00
3.0762e-01	3.5067e+00	1.9752e+00
3.0897e-01	3.4938e+00	1.9682e+00
3.1033e-01	3.4815e+00	1.9624e+00
3.1171e-01	3.4698e+00	1.9577e+00
3.1310e-01	3.4589e+00	1.9540e+00
3.1450e-01	3.4487e+00	1.9513e+00
3.1591e-01	3.4393e+00	1.9495e+00
3.1734e-01	3.4306e+00	1.9485e+00
3.1878e-01	3.4226e+00	1.9482e+00
3.2023e-01	3.4155e+00	1.9487e+00
3.2169e-01	3.4091e+00	1.9497e+00
3.2317e-01	3.4034e+00	1.9514e+00
3.2466e-01	3.3985e+00	1.9537e+00
3.2617e-01	3.3943e+00	1.9564e+00
3.2769e-01	3.3909e+00	1.9597e+00
3.2923e-01	3.3882e+00	1.9634e+00
3.3077e-01	3.3863e+00	1.9675e+00
3.3234e-01	3.3850e+00	1.9720e+00
3.3392e-01	3.3844e+00	1.9769e+00
3.3551e-01	3.3846e+00	1.9822e+00
3.3712e-01	3.3854e+00	1.9878e+00
3.3874e-01	3.3869e+00	1.9937e+00
3.4038e-01	3.3890e+00	2.0000e+00
3.4204e-01	3.3918e+00	2.0067e+00
3.4371e-01	3.3953e+00	2.0137e+00
3.4540e-01	3.3994e+00	2.0210e+00
3.4711e-01	3.4041e+00	2.0288e+00
3.4883e-01	3.4095e+00	2.0369e+00
3.5057e-01	3.4156e+00	2.0455e+00
3.5232e-01	3.4223e+00	2.0545e+00
3.5410e-01	3.4296e+00	2.0641e+00
3.5589e-01	3.4377e+00	2.0742e+00
3.5770e-01	3.4465e+00	2.0851e+00
3.5953e-01	3.4561e+00	2.0967e+00
3.6138e-01	3.4666e+00	2.1091e+00
3.6325e-01	3.4780e+00	2.1226e+00
3.6513e-01	3.4905e+00	2.1373e+00
3.6704e-01	3.5044e+00	2.1534e+00
3.6897e-01	3.5198e+00	2.1710e+00
3.7091e-01	3.5372e+00	2.1904e+00
3.7288e-01	3.5572e+00	2.2118e+00
3.7487e-01	3.5803e+00	2.2354e+00
3.7688e-01	3.6077e+00	2.2611e+00
3.7891e-01	3.6406e+00	2.2889e+00
3.8096e-01	3.6805e+00	2.3180e+00
3.8304e-01	3.7291e+00	2.3470e+00
3.8514e-01	3.7881e+00	2.3733e+00
3.8726e-01	3.8583e+00	2.3933e+00
3.8940e-01	3.9384e+00	2.4020e+00
3.9157e-01	4.0246e+00	2.3947e+00
3.9376e-01	4.1099e+00	2.3688e+00
3.9598e-01	4.1862e+00	2.3258e+00
3.9822e-01	4.2469e+00	2.2719e+00
4.0049e-01	4.2898e+00	2.2158e+00
4.0279e-01	4.3175e+00	2.1660e+00
4.0511e-01	4.3359e+00	2.1280e+00
4.0746e-01	4.3522e+00	2.1045e+00
4.0983e-01	4.3739e+00	2.0949e+00
4.1223e-01	4.4080e+00	2.0960e+00
4.1467e-01	4.4602e+00	2.1020e+00
4.1713e-01	4.5341e+00	2.1041e+00
4.1962e-01	4.6296e+00	2.0917e+00
4.2214e-01	4.7409e+00	2.0537e+00
4.2468e-01	4.8561e+00	1.9824e+00
4.2727e-01	4.9604e+00	1.8768e+00
4.2988e-01	5.0401e+00	1.7445e+00
4.3252e-01	5.0881e+00	1.5977e+00
4.3520e-01	5.1040e+00	1.4496e+00
4.3791e-01	5.0929e+00	1.3097e+00
4.4066e-01	5.0617e+00	1.1836e+00
4.4344e-01	5.0171e+00	1.0733e+00
4.4625e-01	4.9646e+00	9.7833e-01
4.4910e-01	4.9081e+00	8.9735e-01
4.5199e-01	4.8503e+00	8.2849e-01
4.5491e-01	4.7930e+00	7.6991e-01
4.5788e-01	4.7370e+00	7.1994e-01
4.6088e-01	4.6831e+00	6.7715e-01
4.6392e-01	4.6316e+00	6.4032e-01
4.6700e-01	4.5826e+00	6.0846e-01
4.7012e-01	4.5360e+00	5.8077e-01
4.7329e-01	4.4919e+00	5.5657e-01
4.7649e-01	4.4501e+00	5.3532e-01
4.7975e-01	4.4106e+00	5.1657e-01
4.8304e-01	4.3731e+00	4.9995e-01
4.8638e-01	4.3376e+00	4.8516e-01
4.8977e-01	4.3039e+00	4.7194e-01
4.9321e-01	4.2719e+00	4.6009e-01
4.9669e-01	4.2416e+00	4.4942e-01
5.0023e-01	4.2127e+00	4.3978e-01
5.0381e-01	4.1853e+00	4.3104e-01
5.0745e-01	4.1592e+00	4.2309e-01
5.1114e-01	4.1343e+00	4.1585e-01
5.1488e-01	4.1106e+00	4.0921e-01
5.1868e-01	4.0881e+00	4.0313e-01
5.2253e-01	4.0665e+00	3.9752e-01
5.2645e-01	4.0460e+00	3.9234e-01
5.3042e-01	4.0264e+00	3.8755e-01
5.3445e-01	4.0076e+00	3.8309e-01
5.3855e-01	3.9898e+00	3.7892e-01
5.4270e-01	3.9727e+00	3.7502e-01
5.4692e-01	3.9564e+00	3.7135e-01
5.5121e-01	3.9408e+00	3.6789e-01
5.5557e-01	3.9260e+00	3.6460e-01
5.5999e-01	3.9118e+00	3.6146e-01
5.6449e-01	3.8982e+00	3.5846e-01
5.6906e-01	3.8853e+00	3.5556e-01
5.7370e-01	3.8730e+00	3.5275e-01
5.7842e-01	3.8613e+00	3.5001e-01
5.8322e-01	3.8501e+00	3.4732e-01
5.8810e-01	3.8395e+00	3.4465e-01
5.9306e-01	3.8294e+00	3.4200e-01
5.9811e-01	3.8199e+00	3.3935e-01
6.0324e-01	3.8108e+00	3.3667e-01
6.0846e-01	3.8022e+00	3.3394e-01
6.1377e-01	3.7941e+00	3.3115e-01
6.1918e-01	3.7864e+00	3.2827e-01
6.2468e-01	3.7792e+00	3.2529e-01
6.3028e-01	3.7724e+00	3.2217e-01
6.3598e-01	3.7661e+00	3.1889e-01
6.4179e-01	3.7601e+00	3.1542e-01
6.4770e-01	3.7546e+00	3.1173e-01
6.5372e-01	3.7494e+00	3.0778e-01
6.5986e-01	3.7446e+00	3.0351e-01
6.6611e-01	3.7401e+00	2.9888e-01
6.7248e-01	3.7359e+00	2.9381e-01
6.7897e-01	3.7319e+00	2.8821e-01
6.8560e-01	3.7280e+00	2.8199e-01
6.9235e-01	3.7239e+00	2.7501e-01
6.9923e-01	3.7193e+00	2.6721e-01
7.0626e-01	3.7135e+00	2.5896e-01
7.1342e-01	3.7062e+00	2.5154e-01
7.2074e-01	3.6988e+00	2.4565e-01
7.2820e-01	3.6921e+00	2.4072e-01
7.3582e-01	3.6862e+00	2.3613e-01
7.4361e-01	3.6811e+00	2.3157e-01
7.5156e-01	3.6767e+00	2.2684e-01
7.5968e-01	3.6728e+00	2.2184e-01
7.6798e-01	3.6694e+00	2.1646e-01
7.7646e-01	3.6665e+00	2.1061e-01
7.8513e-01	3.6639e+00	2.0421e-01
7.9400e-01	3.6616e+00	1.9713e-01
8.0306e-01	3.6597e+00	1.8926e-01
8.1234e-01	3.6578e+00	1.8043e-01
8.2184e-01	3.6560e+00	1.7044e-01
8.3156e-01	3.6540e+00	1.5902e-01
8.4151e-01	3.6513e+00	1.4584e-01
8.5171e-01	3.6472e+00	1.3052e-01
8.6215e-01	3.6401e+00	1.1304e-01
8.7286e-01	3.6277e+00	9.5230e-02
8.8383e-01	3.6107e+00	8.1396e-02
8.9508e-01	3.5930e+00	7.2663e-02
9.0663e-01	3.5769e+00	6.7064e-02
9.1847e-01	3.5623e+00	6.3128e-02
9.3063e-01	3.5490e+00	6.0126e-02
9.4311e-01	3.5368e+00	5.7696e-02
9.5593e-01	3.5255e+00	5.5640e-02
9.6911e-01	3.5148e+00	5.3844e-02
9.8266e-01	3.5048e+00	5.2238e-02
9.9659e-01	3.4953e+00	5.0775e-02
1.0109e+00	3.4862e+00	4.9425e-02
1.0257e+00	3.4775e+00	4.8165e-02
