Material: main / Nb2O5 / Lemarchand
Optical constants. F. Lemarchand, private communications (2013). Measurement method described in:L. Gao, F. Lemarchand, and M. Lequime. Exploitation of multiple incidences spectrometric measurements for thin film reverse engineering, Opt. Express 20, 15734-15751 (2012)
Comments: 500-nm monolayer deposited on BK7 substrate using the magnetron sputtering technique.
wavelength (um)	n	k
0.250	3.049580	1.063965
0.260	3.102520	0.917045
0.270	3.131130	0.770466
0.280	3.136685	0.628673
0.290	3.121301	0.495546
0.300	3.087695	0.374286
0.310	3.038957	0.267408
0.320	2.978400	0.176816
0.330	2.909504	0.103919
0.340	2.836018	0.050857
0.350	2.762242	0.024358
0.360	2.693980	0.012164
0.370	2.642547	0.006284
0.380	2.603584	0.003352
0.390	2.571562	0.001845
0.400	2.544428	0.001046
0.410	2.520995	0.000609
0.420	2.500485	0.000364
0.430	2.482346	0.000223
0.440	2.466170	0.000140
0.450	2.451645	0.000089
0.460	2.438526	0.000058
0.470	2.426616	0.000039
0.480	2.415755	0.000026
0.490	2.405812	0.000018
0.500	2.396677	0.000013
0.510	2.388258	0.000009
0.520	2.380475	0.000006
0.530	2.373261	0.000005
0.540	2.366559	0.000003
0.550	2.360317	0.000003
0.560	2.354492	0.000002
0.570	2.349046	0.000001
0.580	2.343944	0.000001
0.590	2.339157	0.000001
0.600	2.334657	0.000001
0.610	2.330422	0.000001
0.620	2.326429	0
0.630	2.322660	0
0.640	2.319098	0
0.650	2.315726	0
0.660	2.312532	0
0.670	2.309503	0
0.680	2.306626	0
0.690	2.303892	0
0.700	2.301291	0
0.710	2.298814	0
0.720	2.296453	0
0.730	2.294200	0
0.740	2.292050	0
0.750	2.289996	0
0.760	2.288031	0
0.770	2.286151	0
0.780	2.284351	0
0.790	2.282626	0
0.800	2.280972	0
0.810	2.279384	0
0.820	2.277861	0
0.830	2.276397	0
0.840	2.274990	0
0.850	2.273636	0
0.860	2.272334	0
0.870	2.271080	0
0.880	2.269872	0
0.890	2.268708	0
0.900	2.267586	0
0.910	2.266503	0
0.920	2.265458	0
0.930	2.264449	0
0.940	2.263474	0
0.950	2.262532	0
0.960	2.261621	0
0.970	2.260741	0
0.980	2.259888	0
0.990	2.259063	0
1.000	2.258265	0
1.010	2.257491	0
1.020	2.256741	0
1.030	2.256014	0
1.040	2.255310	0
1.050	2.254626	0
1.060	2.253963	0
1.070	2.253319	0
1.080	2.252694	0
1.090	2.252087	0
1.100	2.251498	0
1.110	2.250925	0
1.120	2.250368	0
1.130	2.249826	0
1.140	2.249300	0
1.150	2.248787	0
1.160	2.248289	0
1.170	2.247803	0
1.180	2.247331	0
1.190	2.246871	0
1.200	2.246423	0
1.210	2.245986	0
1.220	2.245560	0
1.230	2.245146	0
1.240	2.244741	0
1.250	2.244347	0
1.260	2.243962	0
1.270	2.243587	0
1.280	2.243221	0
1.290	2.242863	0
1.300	2.242515	0
1.310	2.242174	0
1.320	2.241841	0
1.330	2.241516	0
1.340	2.241199	0
1.350	2.240889	0
1.360	2.240585	0
1.370	2.240289	0
1.380	2.239999	0
1.390	2.239716	0
1.400	2.239439	0
1.410	2.239168	0
1.420	2.238903	0
1.430	2.238643	0
1.440	2.238390	0
1.450	2.238141	0
1.460	2.237898	0
1.470	2.237660	0
1.480	2.237426	0
1.490	2.237198	0
1.500	2.236974	0
1.510	2.236755	0
1.520	2.236540	0
1.530	2.236330	0
1.540	2.236123	0
1.550	2.235921	0
1.560	2.235723	0
1.570	2.235528	0
1.580	2.235338	0
1.590	2.235151	0
1.600	2.234967	0
1.610	2.234787	0
1.620	2.234611	0
1.630	2.234438	0
1.640	2.234268	0
1.650	2.234101	0
1.660	2.233937	0
1.670	2.233776	0
1.680	2.233619	0
1.690	2.233464	0
1.700	2.233311	0
1.710	2.233162	0
1.720	2.233015	0
1.730	2.232871	0
1.740	2.232729	0
1.750	2.232590	0
1.760	2.232453	0
1.770	2.232318	0
1.780	2.232186	0
1.790	2.232056	0
1.800	2.231929	0
1.810	2.231803	0
1.820	2.231680	0
1.830	2.231558	0
1.840	2.231439	0
1.850	2.231321	0
1.860	2.231206	0
1.870	2.231092	0
1.880	2.230980	0
1.890	2.230870	0
1.900	2.230762	0
1.910	2.230655	0
1.920	2.230550	0
1.930	2.230447	0
1.940	2.230346	0
1.950	2.230246	0
1.960	2.230147	0
1.970	2.230050	0
1.980	2.229955	0
1.990	2.229861	0
2.000	2.229768	0
2.010	2.229677	0
2.020	2.229587	0
2.030	2.229499	0
2.040	2.229412	0
2.050	2.229326	0
2.060	2.229241	0
2.070	2.229158	0
2.080	2.229076	0
2.090	2.228995	0
2.100	2.228915	0
2.110	2.228836	0
2.120	2.228759	0
2.130	2.228683	0
2.140	2.228607	0
2.150	2.228533	0
2.160	2.228460	0
2.170	2.228388	0
2.180	2.228316	0
2.190	2.228246	0
2.200	2.228177	0
2.210	2.228109	0
2.220	2.228041	0
2.230	2.227975	0
2.240	2.227909	0
2.250	2.227845	0
2.260	2.227781	0
2.270	2.227718	0
2.280	2.227656	0
2.290	2.227595	0
2.300	2.227534	0
2.310	2.227474	0
2.320	2.227415	0
2.330	2.227357	0
2.340	2.227300	0
2.350	2.227243	0
2.360	2.227187	0
2.370	2.227132	0
2.380	2.227078	0
2.390	2.227024	0
2.400	2.226971	0
2.410	2.226918	0
2.420	2.226866	0
2.430	2.226815	0
2.440	2.226765	0
2.450	2.226715	0
2.460	2.226665	0
2.470	2.226617	0
2.480	2.226569	0
2.490	2.226521	0
2.500	2.226474	0
