Material: main / Ge / Amotchkina-film
Optical constants. T. Amotchkina, M. Trubetskov, D. Hahner, V. Pervak, Characterization of e-beam evaporated Ge, YbF3, ZnS, and LaF3 thin films for laser-oriented coatings, Appl. Opt. 59, A40-A47 (2020) (Data kindly provided by Tatiana Amotchkina [data] [description])
Comments: 0.42 µm Ge3 film deposited on 1 mm thick ZnSe substratee by e-beam evaporation at 120 °C substrate temperature.
Specs: {"n_absolute": false, "wavelength_vacuum": false, "substrate": "ZnSe", "film_thickness": "0.42 µm"}
wavelength (um)	n	k
0.400	3.02224	2.84015E+00
0.410	3.05556	2.82081E+00
0.420	3.08888	2.80147E+00
0.430	3.12221	2.78208E+00
0.440	3.15554	2.76262E+00
0.450	3.18888	2.74304E+00
0.460	3.22222	2.72330E+00
0.470	3.25556	2.70339E+00
0.480	3.28892	2.68330E+00
0.490	3.32230	2.66310E+00
0.500	3.35570	2.64287E+00
0.510	3.38913	2.62273E+00
0.520	3.42264	2.60270E+00
0.530	3.45626	2.58268E+00
0.540	3.49007	2.56248E+00
0.550	3.52418	2.54189E+00
0.560	3.55867	2.52078E+00
0.570	3.59364	2.49898E+00
0.580	3.62919	2.47642E+00
0.590	3.66542	2.45302E+00
0.600	3.70244	2.42868E+00
0.610	3.74034	2.40336E+00
0.620	3.77919	2.37697E+00
0.630	3.81908	2.34942E+00
0.640	3.86008	2.32059E+00
0.650	3.90226	2.29031E+00
0.660	3.94563	2.25847E+00
0.670	3.99020	2.22488E+00
0.680	4.03595	2.18937E+00
0.690	4.08282	2.15176E+00
0.700	4.13074	2.11185E+00
0.710	4.17957	2.06944E+00
0.720	4.22916	2.02434E+00
0.730	4.27927	1.97632E+00
0.740	4.32963	1.92511E+00
0.750	4.37987	1.87057E+00
0.760	4.42962	1.81255E+00
0.770	4.47846	1.75090E+00
0.780	4.52594	1.68554E+00
0.790	4.57149	1.61621E+00
0.800	4.61481	1.54333E+00
0.810	4.65562	1.46720E+00
0.820	4.69352	1.38805E+00
0.830	4.72848	1.30664E+00
0.840	4.76067	1.22381E+00
0.850	4.78987	1.14035E+00
0.860	4.81646	1.05729E+00
0.870	4.84045	9.75538E-01
0.880	4.86168	8.96233E-01
0.890	4.88032	8.19967E-01
0.900	4.89574	7.48297E-01
0.910	4.90816	6.81251E-01
0.920	4.91634	6.20736E-01
0.930	4.92062	5.66164E-01
0.940	4.92004	5.19120E-01
0.950	4.91558	4.78459E-01
0.960	4.90754	4.44433E-01
0.970	4.89710	4.15992E-01
0.980	4.88536	3.92118E-01
0.990	4.87321	3.72357E-01
1.000	4.86157	3.55124E-01
1.010	4.85126	3.39362E-01
1.020	4.84250	3.22306E-01
1.030	4.83483	3.04336E-01
1.040	4.82742	2.87354E-01
1.050	4.81922	2.70634E-01
1.060	4.80980	2.54267E-01
1.070	4.79916	2.39404E-01
1.080	4.78763	2.26205E-01
1.090	4.77580	2.13366E-01
1.100	4.76383	2.01769E-01
1.110	4.75186	1.90770E-01
1.120	4.73990	1.80340E-01
1.130	4.72791	1.70506E-01
1.140	4.71580	1.61538E-01
1.150	4.70348	1.52650E-01
1.160	4.69101	1.43766E-01
1.170	4.67871	1.35591E-01
1.180	4.66680	1.28205E-01
1.190	4.65528	1.21579E-01
1.200	4.64404	1.14984E-01
1.210	4.63316	1.08491E-01
1.220	4.62277	1.03090E-01
1.230	4.61242	9.83421E-02
1.240	4.60180	9.33775E-02
1.250	4.59117	8.79087E-02
1.260	4.58137	8.35075E-02
1.270	4.57256	7.90971E-02
1.280	4.56477	7.48012E-02
1.290	4.55770	7.13063E-02
1.300	4.55076	6.83175E-02
1.310	4.54355	6.49811E-02
1.320	4.53600	6.20994E-02
1.330	4.52843	5.94333E-02
1.340	4.52106	5.69220E-02
1.350	4.51361	5.45183E-02
1.360	4.50560	5.26776E-02
1.370	4.49741	5.11406E-02
1.380	4.48943	4.92620E-02
1.390	4.48155	4.73165E-02
1.400	4.47368	4.57629E-02
1.410	4.46607	4.40204E-02
1.420	4.45893	4.24796E-02
1.430	4.45277	4.13653E-02
1.440	4.44828	4.01441E-02
1.450	4.44573	3.87483E-02
1.460	4.44480	3.75390E-02
1.470	4.44476	3.63878E-02
1.480	4.44469	3.51501E-02
1.490	4.44375	3.45479E-02
1.500	4.44133	3.42519E-02
1.510	4.43712	3.36374E-02
1.520	4.43139	3.24019E-02
1.530	4.42522	3.13120E-02
1.540	4.41932	3.08111E-02
1.550	4.41376	3.00339E-02
1.560	4.40881	2.92591E-02
1.570	4.40438	2.87736E-02
1.580	4.39993	2.81166E-02
1.590	4.39521	2.73312E-02
1.600	4.39053	2.65127E-02
1.610	4.38616	2.57893E-02
1.620	4.38235	2.53996E-02
1.630	4.37889	2.50554E-02
1.640	4.37548	2.45315E-02
1.650	4.37192	2.39127E-02
1.660	4.36814	2.35170E-02
1.670	4.36401	2.24883E-02
1.680	4.36029	2.20807E-02
1.690	4.35677	2.15707E-02
1.700	4.35322	2.04251E-02
1.710	4.35032	2.06362E-02
1.720	4.34712	2.02889E-02
1.730	4.34352	1.96203E-02
1.740	4.33957	1.89075E-02
1.750	4.33533	1.84304E-02
1.760	4.33074	1.85487E-02
1.770	4.32569	1.75244E-02
1.780	4.32119	1.71282E-02
1.790	4.31782	1.70313E-02
1.800	4.31645	1.42671E-02
1.810	4.31852	1.21468E-02
1.820	4.32271	1.11395E-02
1.830	4.32819	1.09714E-02
1.840	4.33339	1.07721E-02
1.850	4.33575	1.06191E-02
1.860	4.33567	1.04927E-02
1.870	4.33333	1.03512E-02
1.880	4.32904	9.99997E-03
1.890	4.32451	9.66730E-03
1.900	4.32009	9.29880E-03
1.910	4.31594	8.86122E-03
1.920	4.31240	8.39111E-03
1.930	4.30928	7.88469E-03
1.940	4.30655	7.36035E-03
1.950	4.30435	6.88450E-03
1.960	4.30235	6.49945E-03
1.970	4.30046	6.13098E-03
1.980	4.29864	5.71835E-03
1.990	4.29682	5.39660E-03
2.000	4.29500	5.09376E-03
2.010	4.29318	4.79308E-03
2.020	4.29137	4.48228E-03
2.030	4.28960	4.20478E-03
2.040	4.28787	3.97363E-03
2.050	4.28629	3.74203E-03
2.060	4.28476	3.53406E-03
2.070	4.28328	3.35751E-03
2.080	4.28180	3.21867E-03
2.090	4.28031	3.06115E-03
2.100	4.27880	2.86885E-03
2.110	4.27729	2.73305E-03
2.120	4.27577	2.60423E-03
2.130	4.27424	2.46899E-03
2.140	4.27265	2.31076E-03
2.150	4.27101	2.14359E-03
2.160	4.26928	1.97142E-03
2.170	4.26755	1.81218E-03
2.180	4.26583	1.66190E-03
2.190	4.26427	1.56507E-03
2.200	4.26284	1.46908E-03
2.210	4.26160	1.37410E-03
2.220	4.26069	1.25672E-03
2.230	4.25993	1.13220E-03
2.240	4.25950	1.00455E-03
2.250	4.25919	9.27050E-04
2.260	4.25899	8.99607E-04
2.270	4.25878	8.82552E-04
2.280	4.25854	8.68308E-04
2.290	4.25813	8.58275E-04
2.300	4.25759	8.66438E-04
2.310	4.25692	8.92658E-04
2.320	4.25614	8.93675E-04
2.330	4.25533	8.88603E-04
2.340	4.25451	8.81730E-04
2.350	4.25373	8.73646E-04
2.360	4.25301	8.63687E-04
2.370	4.25232	8.91273E-04
2.380	4.25165	9.37897E-04
2.390	4.25089	9.77381E-04
2.400	4.25010	1.01684E-03
2.410	4.24921	1.05915E-03
2.420	4.24838	1.11199E-03
2.430	4.24762	1.18052E-03
2.440	4.24699	1.25212E-03
2.450	4.24645	1.32561E-03
2.460	4.24607	1.35766E-03
2.470	4.24573	1.38106E-03
2.480	4.24542	1.40088E-03
2.490	4.24513	1.43404E-03
2.500	4.24490	1.51969E-03
2.510	4.24477	1.67287E-03
2.520	4.24482	1.94127E-03
2.530	4.24489	2.25829E-03
2.540	4.24497	2.61966E-03
2.550	4.24499	3.00348E-03
2.560	4.24498	3.39872E-03
2.570	4.24452	3.87910E-03
2.580	4.24394	4.38224E-03
2.590	4.24303	4.69292E-03
2.600	4.24610	4.98258E-03
2.700	4.23971	4.98258E-03
2.800	4.23400	4.98258E-03
2.900	4.22886	4.98258E-03
3.000	4.22423	4.98258E-03
3.100	4.22004	4.98258E-03
3.200	4.21623	4.98258E-03
3.300	4.21277	4.98258E-03
3.400	4.20961	4.98258E-03
3.500	4.20671	4.98258E-03
3.600	4.20406	4.98258E-03
3.700	4.20161	4.98258E-03
3.800	4.19936	4.98258E-03
3.900	4.19728	4.98258E-03
4.000	4.19535	4.98258E-03
4.100	4.19356	4.98258E-03
4.200	4.19189	4.98258E-03
4.300	4.19035	4.98258E-03
4.400	4.18890	4.98258E-03
4.500	4.18755	4.98258E-03
4.600	4.18629	4.98258E-03
4.700	4.18511	4.98258E-03
4.800	4.18400	4.98258E-03
4.900	4.18296	4.98258E-03
5.000	4.18198	4.98258E-03
5.100	4.18106	4.98258E-03
5.200	4.18019	4.98258E-03
5.300	4.17936	4.98258E-03
5.400	4.17859	4.98258E-03
5.500	4.17785	4.98258E-03
5.600	4.17716	4.98258E-03
5.700	4.17650	4.98258E-03
5.800	4.17588	4.98258E-03
5.900	4.17528	4.98258E-03
6.000	4.17472	4.98258E-03
6.100	4.17418	4.98258E-03
6.200	4.17367	4.98258E-03
6.300	4.17318	4.98258E-03
6.400	4.17272	4.98258E-03
6.500	4.17228	4.98258E-03
6.600	4.17185	4.98258E-03
6.700	4.17145	4.98258E-03
6.800	4.17106	4.98258E-03
6.900	4.17069	4.98258E-03
7.000	4.17034	4.98258E-03
7.100	4.17000	4.98258E-03
7.200	4.16967	4.98258E-03
7.300	4.16936	4.98258E-03
7.400	4.16906	4.98258E-03
7.500	4.16878	4.98258E-03
7.600	4.16850	4.98258E-03
7.700	4.16823	4.98258E-03
7.800	4.16798	4.98258E-03
7.900	4.16773	4.98258E-03
8.000	4.16750	4.98258E-03
8.100	4.16727	4.98258E-03
8.200	4.16705	4.98258E-03
8.300	4.16684	4.98258E-03
8.400	4.16663	4.98258E-03
8.500	4.16644	4.98258E-03
8.600	4.16625	4.98258E-03
8.700	4.16606	4.98258E-03
8.800	4.16589	4.98258E-03
8.900	4.16571	4.98258E-03
9.000	4.16555	4.98258E-03
9.100	4.16539	4.98258E-03
9.200	4.16523	4.98258E-03
9.300	4.16508	4.98258E-03
9.400	4.16494	4.98258E-03
9.500	4.16480	4.98258E-03
9.600	4.16466	4.98258E-03
9.700	4.16453	4.98258E-03
9.800	4.16440	4.98258E-03
9.900	4.16428	4.98258E-03
10.00	4.16415	4.98258E-03
10.10	4.16404	4.98258E-03
10.20	4.16392	4.98258E-03
10.30	4.16381	4.98258E-03
10.40	4.16371	4.98258E-03
10.50	4.16360	4.98258E-03
10.60	4.16350	4.98258E-03
10.70	4.16340	4.98258E-03
10.80	4.16331	4.98258E-03
10.90	4.16321	4.98258E-03
11.00	4.16312	4.98258E-03
11.10	4.16304	4.98258E-03
11.20	4.16295	4.98258E-03
11.30	4.16287	4.98258E-03
11.40	4.16279	4.98258E-03
11.50	4.16271	4.98258E-03
11.60	4.16263	4.98258E-03
11.70	4.16255	4.98258E-03
11.80	4.16248	4.98258E-03
11.90	4.16241	4.98258E-03
12.00	4.16234	4.98258E-03
12.10	4.16227	4.98258E-03
12.20	4.16221	4.98258E-03
12.30	4.16214	4.98258E-03
12.40	4.16208	4.98258E-03
12.50	4.16202	4.98258E-03
12.60	4.16196	4.98258E-03
12.70	4.16190	4.98258E-03
12.80	4.16184	4.98258E-03
12.90	4.16178	4.98258E-03
13.00	4.16173	4.98258E-03
13.10	4.16168	4.98258E-03
13.20	4.16162	4.98258E-03
13.30	4.16157	4.98258E-03
13.40	4.16152	4.98258E-03
13.50	4.16147	4.98258E-03
13.60	4.16143	4.98258E-03
13.70	4.16138	4.98258E-03
13.80	4.16133	4.98258E-03
13.90	4.16129	4.98258E-03
14.00	4.16124	4.98258E-03
14.10	4.16120	4.98258E-03
14.20	4.16116	4.98258E-03
14.30	4.16112	4.98258E-03
14.40	4.16108	4.98258E-03
14.50	4.16104	4.98258E-03
14.60	4.16100	4.98258E-03
14.70	4.16096	4.98258E-03
14.80	4.16093	4.98258E-03
14.90	4.16089	4.98258E-03
15.00	4.16085	4.98258E-03
