Material: main / Ge / Amotchkina
Optical constants. T. Amotchkina, M. Trubetskov, D. Hahner, V. Pervak, Characterization of e-beam evaporated Ge, YbF3, ZnS, and LaF3 thin films for laser-oriented coatings, Appl. Opt. 59, A40-A47 (2020) (Data kindly provided by Tatiana Amotchkina [data] [description])
Specs: {"n_absolute": false, "wavelength_vacuum": false}
wavelength (um)	n	k
0.40000	3.00000	2.51940
0.41879	3.00000	2.45739
0.43757	3.00000	2.44144
0.45636	3.00000	2.47903
0.47514	3.00000	2.54540
0.49393	3.00000	2.63387
0.51271	3.00025	2.74385
0.53150	3.00274	2.83995
0.55029	3.00959	2.88399
0.56907	3.02275	2.91049
0.58786	3.04519	2.93263
0.60664	3.08150	2.87870
0.62543	3.13527	2.75666
0.64421	3.20855	2.62702
0.66300	3.29996	2.50996
0.68178	3.40442	2.39882
0.70057	3.51638	2.28593
0.71936	3.63181	2.16824
0.73814	3.74740	2.04421
0.75693	3.85982	1.91309
0.77571	3.96620	1.77499
0.79450	4.06442	1.63147
0.81328	4.15300	1.48490
0.83207	4.23044	1.33702
0.85086	4.29450	1.18875
0.86964	4.33525	1.03617
0.88843	4.34187	0.87262
0.90721	4.34332	0.71148
0.92600	4.36077	0.56667
0.94478	4.37710	0.43640
0.96357	4.38358	0.32011
0.98235	4.38100	0.21981
1.00114	4.37427	0.13775
1.01993	4.36606	0.07611
1.03871	4.35727	0.03670
1.05750	4.34765	0.01860
1.07628	4.33809	0.01310
1.09507	4.33004	0.00834
1.11385	4.32388	0.00429
1.13264	4.31665	0.00094
1.15143	4.30767	0.00016
1.17021	4.29867	0.00011
1.18900	4.28971	0.00055
1.20778	4.28120	0.00194
1.22657	4.27259	0.00299
1.24535	4.26574	0.00397
1.26414	4.26063	0.00440
1.28292	4.25561	0.00368
1.30171	4.24977	0.00225
1.32050	4.24445	0.00077
1.33928	4.24014	0.00048
1.35807	4.23546	0.00165
1.37685	4.22964	0.00218
1.39564	4.22435	0.00127
1.41442	4.22122	0.00034
1.43321	4.21980	0.00018
1.45200	4.21886	0.00017
1.47078	4.21824	0.00017
1.48957	4.21761	0.00086
1.50835	4.21678	0.00190
1.52714	4.21661	0.00143
1.54592	4.21729	0.00027
1.56471	4.21218	0.00033
1.58349	4.20038	0.00083
1.60228	4.18694	0.00196
1.62107	4.17514	0.00384
1.63985	4.16717	0.00658
1.65864	4.16115	0.00878
1.67742	4.15592	0.00988
1.69621	4.15122	0.00960
1.71499	4.14720	0.00305
1.73378	4.14300	0.00019
1.75256	4.13868	0.00024
1.77135	4.13500	0.00016
1.79014	4.13221	0.00010
1.80892	4.13043	0.00007
1.82771	4.12313	0.00005
1.84649	4.11333	0.00004
1.86528	4.09586	0.00003
1.88406	4.08027	0.00002
1.90285	4.06730	0.00001
1.92164	4.05768	0.00001
1.94042	4.05015	0.00000
1.95921	4.04353	0.00000
1.97799	4.03722	0.00000
1.99678	4.04333	0.00000
2.01556	4.05247	0.00000
2.03435	4.05025	0.00000
2.05313	4.04502	0.00000
2.07192	4.04188	0.00000
2.09071	4.03967	0.00000
2.10010	4.03857	0.00000
2.14000	4.04717	0.00000
2.18000	4.04383	0.00000
2.22000	4.04068	0.00000
2.26000	4.03769	0.00000
2.30000	4.03485	0.00000
2.34000	4.03216	0.00000
2.38000	4.02961	0.00000
2.42000	4.02718	0.00000
2.46000	4.02486	0.00000
2.50000	4.02266	0.00000
2.54000	4.02056	0.00000
2.58000	4.01856	0.00000
2.62000	4.01665	0.00000
2.66000	4.01482	0.00000
2.70000	4.01307	0.00000
2.74000	4.01140	0.00000
2.78000	4.00981	0.00000
2.82000	4.00828	0.00000
2.86000	4.00681	0.00000
2.90000	4.00540	0.00000
2.94000	4.00405	0.00000
2.98000	4.00276	0.00000
3.02000	4.00151	0.00000
3.06000	4.00032	0.00000
3.10000	3.99917	0.00000
3.14000	3.99806	0.00000
3.18000	3.99700	0.00000
3.22000	3.99597	0.00000
3.26000	3.99498	0.00000
3.30000	3.99403	0.00000
3.34000	3.99311	0.00000
3.38000	3.99223	0.00000
3.42000	3.99137	0.00000
3.46000	3.99055	0.00000
3.50000	3.98975	0.00000
3.54000	3.98898	0.00000
3.58000	3.98823	0.00000
3.62000	3.98751	0.00000
3.66000	3.98682	0.00000
3.70000	3.98614	0.00000
3.74000	3.98549	0.00000
3.78000	3.98486	0.00000
3.82000	3.98425	0.00000
3.86000	3.98365	0.00000
3.90000	3.98308	0.00000
3.94000	3.98252	0.00000
3.98000	3.98198	0.00000
4.02000	3.98145	0.00000
4.06000	3.98094	0.00000
4.10000	3.98045	0.00000
4.14000	3.97997	0.00000
4.18000	3.97950	0.00000
4.22000	3.97905	0.00000
4.26000	3.97861	0.00000
4.30000	3.97818	0.00000
4.34000	3.97776	0.00000
4.38000	3.97736	0.00000
4.42000	3.97696	0.00000
4.46000	3.97658	0.00000
4.50000	3.97621	0.00000
4.54000	3.97584	0.00000
4.58000	3.97549	0.00000
4.62000	3.97514	0.00000
4.66000	3.97481	0.00000
4.70000	3.97448	0.00000
4.74000	3.97416	0.00000
4.78000	3.97385	0.00000
4.82000	3.97354	0.00000
4.86000	3.97325	0.00000
4.90000	3.97296	0.00000
4.94000	3.97268	0.00000
4.98000	3.97240	0.00000
5.02000	3.97213	0.00000
5.06000	3.97187	0.00000
5.10000	3.97161	0.00000
5.14000	3.97136	0.00000
5.18000	3.97112	0.00000
5.22000	3.97088	0.00000
5.26000	3.97065	0.00000
5.30000	3.97042	0.00000
5.34000	3.97019	0.00000
5.38000	3.96998	0.00000
5.42000	3.96976	0.00000
5.46000	3.96955	0.00000
5.50000	3.96935	0.00000
5.54000	3.96915	0.00000
5.58000	3.96895	0.00000
5.62000	3.96876	0.00000
5.66000	3.96858	0.00000
5.70000	3.96839	0.00000
5.74000	3.96821	0.00000
5.78000	3.96804	0.00000
5.82000	3.96787	0.00000
5.86000	3.96770	0.00000
5.90000	3.96753	0.00000
5.94000	3.96737	0.00000
5.98000	3.96721	0.00000
6.02000	3.96705	0.00000
6.06000	3.96690	0.00000
6.10000	3.96675	0.00000
6.14000	3.96661	0.00000
6.18000	3.96646	0.00000
6.22000	3.96632	0.00000
6.26000	3.96618	0.00000
6.30000	3.96605	0.00000
6.34000	3.96591	0.00000
6.38000	3.96578	0.00000
6.42000	3.96566	0.00000
6.46000	3.96553	0.00000
6.50000	3.96541	0.00000
6.54000	3.96529	0.00000
6.58000	3.96517	0.00000
6.62000	3.96505	0.00000
6.66000	3.96493	0.00000
6.70000	3.96482	0.00000
6.74000	3.96471	0.00000
6.78000	3.96460	0.00000
6.82000	3.96450	0.00000
6.86000	3.96439	0.00000
6.90000	3.96429	0.00000
6.94000	3.96419	0.00000
6.98000	3.96409	0.00000
7.02000	3.96399	0.00000
7.06000	3.96389	0.00000
7.10000	3.96380	0.00000
7.14000	3.96370	0.00000
7.18000	3.96361	0.00000
7.22000	3.96352	0.00000
7.26000	3.96343	0.00000
7.30000	3.96335	0.00000
7.34000	3.96326	0.00000
7.38000	3.96318	0.00000
7.42000	3.96309	0.00000
7.46000	3.96301	0.00000
7.50000	3.96293	0.00000
7.54000	3.96285	0.00000
7.58000	3.96278	0.00000
7.62000	3.96270	0.00000
7.66000	3.96262	0.00000
7.70000	3.96255	0.00000
7.74000	3.96248	0.00000
7.78000	3.96241	0.00000
7.82000	3.96233	0.00000
7.86000	3.96226	0.00000
7.90000	3.96220	0.00000
7.94000	3.96213	0.00000
7.98000	3.96206	0.00000
8.02000	3.96200	0.00000
8.06000	3.96193	0.00000
8.10000	3.96187	0.00000
8.14000	3.96180	0.00000
8.18000	3.96174	0.00000
8.22000	3.96168	0.00000
8.26000	3.96162	0.00000
8.30000	3.96156	0.00000
8.34000	3.96150	0.00000
8.38000	3.96145	0.00000
8.42000	3.96139	0.00000
8.46000	3.96133	0.00000
8.50000	3.96128	0.00000
8.54000	3.96123	0.00000
8.58000	3.96117	0.00000
8.62000	3.96112	0.00000
8.66000	3.96107	0.00000
8.70000	3.96102	0.00000
8.74000	3.96096	0.00000
8.78000	3.96091	0.00000
8.82000	3.96087	0.00000
8.86000	3.96082	0.00000
8.90000	3.96077	0.00000
8.94000	3.96072	0.00000
8.98000	3.96067	0.00000
9.02000	3.96063	0.00000
9.06000	3.96058	0.00000
9.10000	3.96054	0.00000
9.14000	3.96049	0.00000
9.18000	3.96045	0.00000
9.22000	3.96041	0.00000
9.26000	3.96036	0.00000
9.30000	3.96032	0.00000
9.34000	3.96028	0.00000
9.38000	3.96024	0.00000
9.42000	3.96020	0.00000
9.46000	3.96016	0.00000
9.50000	3.96012	0.00000
9.54000	3.96008	0.00000
9.58000	3.96004	0.00000
9.62000	3.96000	0.00000
9.66000	3.95997	0.00000
9.70000	3.95993	0.00000
9.74000	3.95989	0.00000
9.78000	3.95986	0.00000
9.82000	3.95982	0.00000
9.86000	3.95979	0.00000
9.90000	3.95975	0.00000
9.94000	3.95972	0.00000
9.98000	3.95968	0.00000
10.0200	3.95965	0.00000
10.0600	3.95962	0.00000
10.1000	3.95958	0.00000
10.1400	3.95955	0.00000
10.1800	3.95952	0.00000
10.2200	3.95949	0.00000
10.2600	3.95946	0.00000
10.3000	3.95943	0.00000
10.3400	3.95939	0.00000
10.3800	3.95936	0.00000
10.4200	3.95933	0.00000
10.4600	3.95931	0.00000
10.5000	3.95928	0.00000
10.5400	3.95925	0.00000
10.5800	3.95922	0.00000
10.6200	3.95919	0.00000
10.6600	3.95916	0.00000
10.7000	3.95913	0.00000
10.7400	3.95911	0.00000
10.7800	3.95908	0.00000
10.8200	3.95905	0.00000
10.8600	3.95903	0.00000
10.9000	3.95900	0.00000
10.9400	3.95898	0.00000
10.9800	3.95895	0.00000
