Material: main / Ge / Nunley
Optical constants. T. N. Nunley, N. S. Fernando, N. Samarasingha, J. M. Moya, C. M. Nelson, A. A. Medina, S. Zollner, Optical constants of germanium and thermally grown germanium dioxide from 0.5 to 6.6 eV via a multi-sample ellipsometry investigation, J. Vac. Sci. Technol. B 34, 061205 (2016) (see supplemental materials)
Comments: 300 K
Specs: {"n_absolute": true, "wavelength_vacuum": true}
wavelength (um)	n	k
1.879E-1	8.351E-1	2.567E+0
1.884E-1	8.434E-1	2.573E+0
1.890E-1	8.518E-1	2.579E+0
1.896E-1	8.598E-1	2.585E+0
1.902E-1	8.679E-1	2.592E+0
1.907E-1	8.760E-1	2.598E+0
1.913E-1	8.840E-1	2.604E+0
1.919E-1	8.918E-1	2.611E+0
1.925E-1	8.998E-1	2.617E+0
1.931E-1	9.074E-1	2.624E+0
1.937E-1	9.152E-1	2.631E+0
1.943E-1	9.228E-1	2.638E+0
1.949E-1	9.302E-1	2.646E+0
1.956E-1	9.377E-1	2.653E+0
1.962E-1	9.450E-1	2.661E+0
1.968E-1	9.523E-1	2.669E+0
1.974E-1	9.598E-1	2.676E+0
1.981E-1	9.668E-1	2.686E+0
1.987E-1	9.741E-1	2.695E+0
1.993E-1	9.814E-1	2.704E+0
2.000E-1	9.888E-1	2.713E+0
2.006E-1	9.964E-1	2.724E+0
2.013E-1	1.004E+0	2.734E+0
2.019E-1	1.012E+0	2.746E+0
2.026E-1	1.021E+0	2.757E+0
2.033E-1	1.030E+0	2.770E+0
2.039E-1	1.039E+0	2.783E+0
2.046E-1	1.050E+0	2.796E+0
2.053E-1	1.061E+0	2.809E+0
2.060E-1	1.074E+0	2.823E+0
2.066E-1	1.087E+0	2.837E+0
2.073E-1	1.102E+0	2.850E+0
2.080E-1	1.117E+0	2.863E+0
2.087E-1	1.134E+0	2.876E+0
2.094E-1	1.152E+0	2.888E+0
2.101E-1	1.170E+0	2.899E+0
2.109E-1	1.190E+0	2.908E+0
2.116E-1	1.210E+0	2.917E+0
2.123E-1	1.231E+0	2.924E+0
2.130E-1	1.251E+0	2.930E+0
2.138E-1	1.272E+0	2.934E+0
2.145E-1	1.293E+0	2.936E+0
2.153E-1	1.312E+0	2.938E+0
2.160E-1	1.332E+0	2.937E+0
2.168E-1	1.350E+0	2.936E+0
2.175E-1	1.366E+0	2.933E+0
2.183E-1	1.382E+0	2.930E+0
2.191E-1	1.396E+0	2.926E+0
2.198E-1	1.408E+0	2.922E+0
2.206E-1	1.420E+0	2.917E+0
2.214E-1	1.429E+0	2.913E+0
2.222E-1	1.437E+0	2.908E+0
2.230E-1	1.444E+0	2.905E+0
2.238E-1	1.449E+0	2.902E+0
2.246E-1	1.453E+0	2.899E+0
2.254E-1	1.456E+0	2.898E+0
2.262E-1	1.458E+0	2.898E+0
2.271E-1	1.459E+0	2.898E+0
2.279E-1	1.460E+0	2.900E+0
2.288E-1	1.460E+0	2.903E+0
2.296E-1	1.459E+0	2.907E+0
2.305E-1	1.459E+0	2.912E+0
2.313E-1	1.457E+0	2.919E+0
2.322E-1	1.456E+0	2.927E+0
2.331E-1	1.455E+0	2.935E+0
2.339E-1	1.454E+0	2.945E+0
2.348E-1	1.453E+0	2.956E+0
2.357E-1	1.452E+0	2.968E+0
2.366E-1	1.451E+0	2.982E+0
2.375E-1	1.450E+0	2.996E+0
2.384E-1	1.450E+0	3.012E+0
2.394E-1	1.450E+0	3.028E+0
2.403E-1	1.450E+0	3.046E+0
2.412E-1	1.451E+0	3.065E+0
2.422E-1	1.453E+0	3.085E+0
2.431E-1	1.455E+0	3.106E+0
2.441E-1	1.457E+0	3.127E+0
2.450E-1	1.461E+0	3.151E+0
2.460E-1	1.465E+0	3.174E+0
2.470E-1	1.470E+0	3.199E+0
2.480E-1	1.475E+0	3.225E+0
2.490E-1	1.481E+0	3.252E+0
2.500E-1	1.489E+0	3.279E+0
2.510E-1	1.497E+0	3.308E+0
2.520E-1	1.506E+0	3.337E+0
2.530E-1	1.516E+0	3.368E+0
2.541E-1	1.527E+0	3.399E+0
2.551E-1	1.540E+0	3.431E+0
2.562E-1	1.553E+0	3.464E+0
2.572E-1	1.568E+0	3.498E+0
2.583E-1	1.583E+0	3.533E+0
2.594E-1	1.600E+0	3.569E+0
2.605E-1	1.618E+0	3.606E+0
2.616E-1	1.637E+0	3.644E+0
2.627E-1	1.657E+0	3.683E+0
2.638E-1	1.678E+0	3.724E+0
2.649E-1	1.701E+0	3.766E+0
2.661E-1	1.724E+0	3.810E+0
2.672E-1	1.749E+0	3.857E+0
2.684E-1	1.776E+0	3.907E+0
2.695E-1	1.806E+0	3.961E+0
2.707E-1	1.839E+0	4.019E+0
2.719E-1	1.876E+0	4.082E+0
2.731E-1	1.921E+0	4.151E+0
2.743E-1	1.975E+0	4.224E+0
2.755E-1	2.041E+0	4.300E+0
2.768E-1	2.120E+0	4.378E+0
2.780E-1	2.216E+0	4.454E+0
2.792E-1	2.329E+0	4.523E+0
2.805E-1	2.457E+0	4.581E+0
2.818E-1	2.600E+0	4.624E+0
2.831E-1	2.754E+0	4.647E+0
2.844E-1	2.913E+0	4.648E+0
2.857E-1	3.073E+0	4.626E+0
2.870E-1	3.228E+0	4.580E+0
2.883E-1	3.372E+0	4.513E+0
2.897E-1	3.501E+0	4.429E+0
2.910E-1	3.613E+0	4.331E+0
2.924E-1	3.704E+0	4.226E+0
2.938E-1	3.776E+0	4.118E+0
2.952E-1	3.829E+0	4.012E+0
2.966E-1	3.867E+0	3.911E+0
2.980E-1	3.893E+0	3.818E+0
2.995E-1	3.910E+0	3.733E+0
3.009E-1	3.921E+0	3.658E+0
3.024E-1	3.929E+0	3.590E+0
3.039E-1	3.935E+0	3.530E+0
3.054E-1	3.941E+0	3.475E+0
3.069E-1	3.947E+0	3.425E+0
3.084E-1	3.953E+0	3.377E+0
3.100E-1	3.960E+0	3.333E+0
3.115E-1	3.967E+0	3.290E+0
3.131E-1	3.973E+0	3.249E+0
3.147E-1	3.980E+0	3.210E+0
3.163E-1	3.986E+0	3.172E+0
3.179E-1	3.992E+0	3.135E+0
3.195E-1	3.997E+0	3.099E+0
3.212E-1	4.002E+0	3.065E+0
3.229E-1	4.006E+0	3.031E+0
3.246E-1	4.010E+0	2.999E+0
3.263E-1	4.013E+0	2.969E+0
3.280E-1	4.016E+0	2.939E+0
3.297E-1	4.019E+0	2.911E+0
3.315E-1	4.022E+0	2.884E+0
3.333E-1	4.024E+0	2.858E+0
3.351E-1	4.026E+0	2.833E+0
3.369E-1	4.029E+0	2.810E+0
3.388E-1	4.031E+0	2.787E+0
3.406E-1	4.034E+0	2.766E+0
3.425E-1	4.037E+0	2.746E+0
3.444E-1	4.041E+0	2.727E+0
3.463E-1	4.045E+0	2.709E+0
3.483E-1	4.050E+0	2.692E+0
3.502E-1	4.056E+0	2.675E+0
3.522E-1	4.063E+0	2.659E+0
3.542E-1	4.071E+0	2.644E+0
3.563E-1	4.081E+0	2.628E+0
3.583E-1	4.092E+0	2.612E+0
3.604E-1	4.104E+0	2.595E+0
3.625E-1	4.117E+0	2.577E+0
3.647E-1	4.131E+0	2.557E+0
3.668E-1	4.144E+0	2.535E+0
3.690E-1	4.157E+0	2.511E+0
3.712E-1	4.168E+0	2.486E+0
3.734E-1	4.177E+0	2.459E+0
3.757E-1	4.184E+0	2.433E+0
3.780E-1	4.189E+0	2.408E+0
3.803E-1	4.194E+0	2.384E+0
3.827E-1	4.199E+0	2.360E+0
3.850E-1	4.204E+0	2.336E+0
3.875E-1	4.208E+0	2.310E+0
3.899E-1	4.211E+0	2.283E+0
3.924E-1	4.211E+0	2.256E+0
3.949E-1	4.207E+0	2.228E+0
3.974E-1	4.201E+0	2.202E+0
3.999E-1	4.192E+0	2.178E+0
4.025E-1	4.181E+0	2.157E+0
4.052E-1	4.168E+0	2.138E+0
4.078E-1	4.154E+0	2.124E+0
4.105E-1	4.140E+0	2.112E+0
4.133E-1	4.126E+0	2.104E+0
4.161E-1	4.113E+0	2.099E+0
4.189E-1	4.101E+0	2.097E+0
4.217E-1	4.091E+0	2.097E+0
4.246E-1	4.082E+0	2.100E+0
4.275E-1	4.076E+0	2.105E+0
4.305E-1	4.071E+0	2.111E+0
4.335E-1	4.069E+0	2.119E+0
4.366E-1	4.069E+0	2.127E+0
4.397E-1	4.071E+0	2.137E+0
4.428E-1	4.075E+0	2.147E+0
4.460E-1	4.081E+0	2.158E+0
4.492E-1	4.089E+0	2.169E+0
4.525E-1	4.099E+0	2.181E+0
4.558E-1	4.111E+0	2.193E+0
4.592E-1	4.125E+0	2.204E+0
4.626E-1	4.140E+0	2.217E+0
4.661E-1	4.158E+0	2.229E+0
4.696E-1	4.177E+0	2.242E+0
4.732E-1	4.199E+0	2.254E+0
4.769E-1	4.222E+0	2.267E+0
4.806E-1	4.248E+0	2.280E+0
4.843E-1	4.276E+0	2.294E+0
4.881E-1	4.306E+0	2.307E+0
4.920E-1	4.339E+0	2.322E+0
4.959E-1	4.376E+0	2.337E+0
4.999E-1	4.416E+0	2.353E+0
5.040E-1	4.463E+0	2.369E+0
5.081E-1	4.516E+0	2.386E+0
5.123E-1	4.578E+0	2.400E+0
5.166E-1	4.650E+0	2.410E+0
5.209E-1	4.731E+0	2.410E+0
5.254E-1	4.820E+0	2.397E+0
5.298E-1	4.910E+0	2.368E+0
5.344E-1	4.996E+0	2.323E+0
5.391E-1	5.072E+0	2.265E+0
5.438E-1	5.134E+0	2.200E+0
5.486E-1	5.183E+0	2.134E+0
5.535E-1	5.219E+0	2.076E+0
5.585E-1	5.252E+0	2.031E+0
5.636E-1	5.292E+0	2.000E+0
5.687E-1	5.353E+0	1.979E+0
5.740E-1	5.446E+0	1.948E+0
5.794E-1	5.564E+0	1.880E+0
5.848E-1	5.680E+0	1.759E+0
5.904E-1	5.758E+0	1.595E+0
5.961E-1	5.785E+0	1.416E+0
6.019E-1	5.766E+0	1.249E+0
6.078E-1	5.719E+0	1.108E+0
6.138E-1	5.660E+0	9.913E-1
6.199E-1	5.596E+0	8.947E-1
6.262E-1	5.532E+0	8.137E-1
6.326E-1	5.468E+0	7.453E-1
6.391E-1	5.407E+0	6.874E-1
6.458E-1	5.348E+0	6.382E-1
6.525E-1	5.292E+0	5.961E-1
6.595E-1	5.239E+0	5.599E-1
6.666E-1	5.190E+0	5.282E-1
6.738E-1	5.144E+0	5.001E-1
6.812E-1	5.101E+0	4.748E-1
6.888E-1	5.061E+0	4.517E-1
6.965E-1	5.022E+0	4.305E-1
7.045E-1	4.986E+0	4.108E-1
7.126E-1	4.951E+0	3.925E-1
7.208E-1	4.918E+0	3.755E-1
7.293E-1	4.887E+0	3.597E-1
7.380E-1	4.856E+0	3.449E-1
7.469E-1	4.827E+0	3.313E-1
7.560E-1	4.798E+0	3.186E-1
7.653E-1	4.771E+0	3.068E-1
7.749E-1	4.745E+0	2.958E-1
7.847E-1	4.721E+0	2.855E-1
7.948E-1	4.697E+0	2.760E-1
8.051E-1	4.674E+0	2.670E-1
8.157E-1	4.652E+0	2.587E-1
8.266E-1	4.631E+0	2.508E-1
8.377E-1	4.611E+0	2.433E-1
8.492E-1	4.591E+0	2.362E-1
8.610E-1	4.573E+0	2.295E-1
8.731E-1	4.555E+0	2.230E-1
8.856E-1	4.538E+0	2.168E-1
8.984E-1	4.522E+0	2.108E-1
9.116E-1	4.506E+0	2.049E-1
9.253E-1	4.492E+0	1.991E-1
9.393E-1	4.477E+0	1.935E-1
9.537E-1	4.464E+0	1.880E-1
9.686E-1	4.450E+0	1.825E-1
9.840E-1	4.438E+0	1.770E-1
9.999E-1	4.426E+0	1.716E-1
1.016E+0	4.414E+0	1.661E-1
1.033E+0	4.403E+0	1.607E-1
1.051E+0	4.392E+0	1.553E-1
1.069E+0	4.382E+0	1.498E-1
1.088E+0	4.372E+0	1.442E-1
1.107E+0	4.364E+0	1.378E-1
1.127E+0	4.355E+0	1.292E-1
1.148E+0	4.344E+0	1.204E-1
1.170E+0	4.331E+0	1.143E-1
1.192E+0	4.320E+0	1.093E-1
1.216E+0	4.310E+0	1.044E-1
1.240E+0	4.301E+0	9.945E-2
1.265E+0	4.292E+0	9.449E-2
1.292E+0	4.283E+0	8.950E-2
1.319E+0	4.275E+0	8.447E-2
1.348E+0	4.267E+0	7.941E-2
1.378E+0	4.259E+0	7.433E-2
1.409E+0	4.253E+0	6.928E-2
1.442E+0	4.246E+0	6.429E-2
1.476E+0	4.242E+0	5.941E-2
1.512E+0	4.243E+0	5.406E-2
1.550E+0	4.250E+0	2.519E-2
1.590E+0	4.216E+0	2.758E-3
1.631E+0	4.194E+0	1.465E-3
1.675E+0	4.178E+0	8.197E-4
1.722E+0	4.164E+0	4.261E-4
1.771E+0	4.152E+0	2.048E-4
1.823E+0	4.141E+0	9.060E-5
1.879E+0	4.131E+0	3.677E-5
1.937E+0	4.122E+0	1.366E-5
2.000E+0	4.113E+0	4.634E-6
2.066E+0	4.105E+0	1.433E-6
2.138E+0	4.097E+0	4.043E-7
2.214E+0	4.090E+0	0.000E+0
2.296E+0	4.083E+0	0.000E+0
2.384E+0	4.077E+0	0.000E+0
2.480E+0	4.071E+0	0.000E+0
