Material: main / SiO2 / Gao
Optical constants. L. Gao, F. Lemarchand, M. Lequime. Refractive index determination of SiO2 layer in the UV/Vis/NIR range: spectrophotometric reverse engineering on single and bi-layer designs, J. Europ. Opt. Soc. Rap. Public. 8, 13010 (2013) (Numerical data kindly provided by F. Lemarchand)
Comments: 300-nm monolayer deposited on fused silica using the ion assistance electronic beam deposition technique.
wavelength (um)	n	k
0.252	1.523846	0.001211
0.256	1.522066	0.001131
0.260	1.520370	0.001055
0.264	1.518753	0.000983
0.268	1.517209	0.000915
0.272	1.515734	0.000850
0.276	1.514325	0.000789
0.280	1.512977	0.000730
0.284	1.511687	0.000675
0.288	1.510452	0.000623
0.292	1.509268	0.000574
0.296	1.508134	0.000527
0.300	1.507046	0.000483
0.304	1.506002	0.000441
0.308	1.504999	0.000402
0.312	1.504035	0.000365
0.316	1.503109	0.000331
0.320	1.502219	0.000298
0.324	1.501361	0.000268
0.328	1.500536	0.000240
0.332	1.499742	0.000213
0.336	1.498976	0.000188
0.340	1.498238	0.000166
0.344	1.497525	0.000144
0.348	1.496838	0.000125
0.352	1.496175	0.000107
0.356	1.495534	0.000091
0.360	1.494915	0.000076
0.364	1.494316	0.000063
0.368	1.493738	0.000051
0.372	1.493177	0.000040
0.376	1.492635	0.000031
0.380	1.492110	0.000023
0.384	1.491601	0.000016
0.388	1.491108	0.000011
0.392	1.490629	0.000007
0.396	1.490165	0.000003
0.400	1.489714	0.000001
0.404	1.489276	0.000000
0.408	1.488850	0.000000
0.412	1.488435	0.000000
0.416	1.488031	0.000000
0.420	1.487638	0.000000
0.424	1.487256	0.000000
0.428	1.486884	0.000000
0.432	1.486522	0.000000
0.436	1.486170	0.000000
0.440	1.485827	0.000000
0.444	1.485493	0.000000
0.448	1.485167	0.000000
0.452	1.484851	0.000000
0.456	1.484542	0.000000
0.460	1.484241	0.000000
0.464	1.483948	0.000000
0.468	1.483662	0.000000
0.472	1.483383	0.000000
0.476	1.483111	0.000000
0.480	1.482846	0.000000
0.484	1.482588	0.000000
0.488	1.482335	0.000000
0.492	1.482089	0.000000
0.496	1.481848	0.000000
0.500	1.481613	0.000000
0.504	1.481384	0.000000
0.508	1.481160	0.000000
0.512	1.480941	0.000000
0.516	1.480727	0.000000
0.520	1.480518	0.000000
0.524	1.480314	0.000000
0.528	1.480115	0.000000
0.532	1.479919	0.000000
0.536	1.479729	0.000000
0.540	1.479542	0.000000
0.544	1.479359	0.000000
0.548	1.479181	0.000000
0.552	1.479006	0.000000
0.556	1.478835	0.000000
0.560	1.478667	0.000000
0.564	1.478503	0.000000
0.568	1.478343	0.000000
0.572	1.478186	0.000000
0.576	1.478032	0.000000
0.580	1.477881	0.000000
0.584	1.477733	0.000000
0.588	1.477588	0.000000
0.592	1.477447	0.000000
0.596	1.477308	0.000000
0.600	1.477171	0.000000
0.604	1.477038	0.000000
0.608	1.476907	0.000000
0.612	1.476778	0.000000
0.616	1.476652	0.000000
0.620	1.476529	0.000000
0.624	1.476408	0.000000
0.628	1.476289	0.000000
0.632	1.476172	0.000000
0.636	1.476058	0.000000
0.640	1.475946	0.000000
0.644	1.475835	0.000000
0.648	1.475727	0.000000
0.652	1.475621	0.000000
0.656	1.475517	0.000000
0.660	1.475414	0.000000
0.664	1.475314	0.000000
0.668	1.475215	0.000000
0.672	1.475118	0.000000
0.676	1.475022	0.000000
0.680	1.474929	0.000000
0.684	1.474837	0.000000
0.688	1.474746	0.000000
0.692	1.474657	0.000000
0.696	1.474570	0.000000
0.700	1.474484	0.000000
0.704	1.474400	0.000000
0.708	1.474317	0.000000
0.712	1.474235	0.000000
0.716	1.474155	0.000000
0.720	1.474076	0.000000
0.724	1.473998	0.000000
0.728	1.473922	0.000000
0.732	1.473847	0.000000
0.736	1.473773	0.000000
0.740	1.473700	0.000000
0.744	1.473629	0.000000
0.748	1.473559	0.000000
0.752	1.473489	0.000000
0.756	1.473421	0.000000
0.760	1.473354	0.000000
0.764	1.473288	0.000000
0.768	1.473223	0.000000
0.772	1.473159	0.000000
0.776	1.473096	0.000000
0.780	1.473034	0.000000
0.784	1.472973	0.000000
0.788	1.472912	0.000000
0.792	1.472853	0.000000
0.796	1.472795	0.000000
0.800	1.472737	0.000000
0.804	1.472680	0.000000
0.808	1.472625	0.000000
0.812	1.472570	0.000000
0.816	1.472515	0.000000
0.820	1.472462	0.000000
0.824	1.472409	0.000000
0.828	1.472357	0.000000
0.832	1.472306	0.000000
0.836	1.472256	0.000000
0.840	1.472206	0.000000
0.844	1.472157	0.000000
0.848	1.472109	0.000000
0.852	1.472061	0.000000
0.856	1.472014	0.000000
0.860	1.471968	0.000000
0.864	1.471922	0.000000
0.868	1.471877	0.000000
0.872	1.471833	0.000000
0.876	1.471789	0.000000
0.880	1.471746	0.000000
0.884	1.471703	0.000000
0.888	1.471661	0.000000
0.892	1.471620	0.000000
0.896	1.471579	0.000000
0.900	1.471538	0.000000
0.904	1.471498	0.000000
0.908	1.471459	0.000000
0.912	1.471420	0.000000
0.916	1.471382	0.000000
0.920	1.471344	0.000000
0.924	1.471307	0.000000
0.928	1.471270	0.000000
0.932	1.471233	0.000000
0.936	1.471197	0.000000
0.940	1.471162	0.000000
0.944	1.471127	0.000000
0.948	1.471092	0.000000
0.952	1.471058	0.000000
0.956	1.471025	0.000000
0.960	1.470991	0.000000
0.964	1.470958	0.000000
0.968	1.470926	0.000000
0.972	1.470894	0.000000
0.976	1.470862	0.000000
0.980	1.470831	0.000000
0.984	1.470800	0.000000
0.988	1.470769	0.000000
0.992	1.470739	0.000000
0.996	1.470709	0.000000
1.000	1.470680	0.000000
1.004	1.470651	0.000000
1.008	1.470622	0.000000
1.012	1.470594	0.000000
1.016	1.470566	0.000000
1.020	1.470538	0.000000
1.024	1.470510	0.000000
1.028	1.470483	0.000000
1.032	1.470456	0.000000
1.036	1.470430	0.000000
1.040	1.470404	0.000000
1.044	1.470378	0.000000
1.048	1.470352	0.000000
1.052	1.470327	0.000000
1.056	1.470302	0.000000
1.060	1.470277	0.000000
1.064	1.470253	0.000000
1.068	1.470229	0.000000
1.072	1.470205	0.000000
1.076	1.470181	0.000000
1.080	1.470158	0.000000
1.084	1.470135	0.000000
1.088	1.470112	0.000000
1.092	1.470089	0.000000
1.096	1.470067	0.000000
1.100	1.470045	0.000000
1.104	1.470023	0.000000
1.108	1.470001	0.000000
1.112	1.469980	0.000000
1.116	1.469958	0.000000
1.120	1.469937	0.000000
1.124	1.469917	0.000000
1.128	1.469896	0.000000
1.132	1.469876	0.000000
1.136	1.469856	0.000000
1.140	1.469836	0.000000
1.144	1.469816	0.000000
1.148	1.469797	0.000000
1.152	1.469778	0.000000
1.156	1.469758	0.000000
1.160	1.469740	0.000000
1.164	1.469721	0.000000
1.168	1.469702	0.000000
1.172	1.469684	0.000000
1.176	1.469666	0.000000
1.180	1.469648	0.000000
1.184	1.469630	0.000000
1.188	1.469613	0.000000
1.192	1.469595	0.000000
1.196	1.469578	0.000000
1.200	1.469561	0.000000
1.204	1.469544	0.000000
1.208	1.469528	0.000000
1.212	1.469511	0.000000
1.216	1.469495	0.000000
1.220	1.469478	0.000000
1.224	1.469462	0.000000
1.228	1.469447	0.000000
1.232	1.469431	0.000000
1.236	1.469415	0.000000
1.240	1.469400	0.000000
1.244	1.469384	0.000000
1.248	1.469369	0.000000
