Material: main / SiO2 / Kischkat
Optical constants. J. Kischkat, S. Peters, B. Gruska, M. Semtsiv, M. Chashnikova, M. Klinkm√ºller, O. Fedosenko, S. Machulik, A. Aleksandrova, G. Monastyrskyi, Y. Flores, and W. T. Masselink. Mid-infrared optical properties of thin films of aluminum oxide, titanium dioxide, silicon dioxide, aluminum nitride, and silicon nitride, Appl. Opt. 51, 6789-6798 (2012) (Numerical data kindly provided by Jan Kischkat)
Comments: 510-nm single layer on Si substrate. Prepared by room temperature reactive sputter deposition using Si target and 2.0 SCCM O2 flux.Data on the influence of deposition conditions on the optical properties of the film can be found in the original publication.Data on the refractive index (n) in the visible can be found in the original publication.
wavelength (um)	n	k
1.53846	1.44325	0.00002
1.54226	1.44321	0.00002
1.54607	1.44317	0.00002
1.54991	1.44313	0.00002
1.55376	1.44310	0.00002
1.55763	1.44306	0.00002
1.56152	1.44302	0.00002
1.56544	1.44298	0.00002
1.56937	1.44294	0.00002
1.57332	1.44290	0.00002
1.57729	1.44286	0.00002
1.58128	1.44282	0.00002
1.58529	1.44278	0.00002
1.58932	1.44274	0.00002
1.59337	1.44270	0.00002
1.59744	1.44265	0.00002
1.60154	1.44261	0.00002
1.60565	1.44257	0.00002
1.60979	1.44253	0.00002
1.61394	1.44248	0.00002
1.61812	1.44244	0.00002
1.62232	1.44240	0.00002
1.62655	1.44235	0.00002
1.63079	1.44231	0.00002
1.63506	1.44226	0.00002
1.63934	1.44222	0.00002
1.64366	1.44217	0.00002
1.64799	1.44213	0.00002
1.65235	1.44208	0.00002
1.65673	1.44203	0.00002
1.66113	1.44199	0.00002
1.66556	1.44194	0.00002
1.67001	1.44189	0.00002
1.67448	1.44184	0.00002
1.67898	1.44179	0.00002
1.68350	1.44174	0.00002
1.68805	1.44169	0.00002
1.69262	1.44164	0.00002
1.69722	1.44159	0.00002
1.70184	1.44154	0.00002
1.70648	1.44149	0.00002
1.71116	1.44144	0.00002
1.71585	1.44139	0.00002
1.72058	1.44133	0.00002
1.72533	1.44128	0.00002
1.73010	1.44123	0.00002
1.73491	1.44117	0.00003
1.73974	1.44112	0.00003
1.74459	1.44107	0.00003
1.74948	1.44101	0.00003
1.75439	1.44095	0.00003
1.75932	1.44090	0.00003
1.76429	1.44084	0.00003
1.76929	1.44078	0.00003
1.77431	1.44073	0.00003
1.77936	1.44067	0.00003
1.78444	1.44061	0.00003
1.78955	1.44055	0.00003
1.79469	1.44049	0.00003
1.79986	1.44043	0.00003
1.80505	1.44037	0.00003
1.81028	1.44030	0.00003
1.81554	1.44024	0.00003
1.82083	1.44018	0.00003
1.82615	1.44012	0.00003
1.83150	1.44005	0.00003
1.83688	1.43999	0.00003
1.84230	1.43992	0.00003
1.84775	1.43986	0.00003
1.85322	1.43979	0.00003
1.85874	1.43972	0.00003
1.86428	1.43966	0.00003
1.86986	1.43959	0.00003
1.87547	1.43952	0.00003
1.88111	1.43945	0.00003
1.88679	1.43938	0.00003
1.89251	1.43931	0.00003
1.89825	1.43924	0.00003
1.90404	1.43916	0.00003
1.90985	1.43909	0.00003
1.91571	1.43902	0.00003
1.92160	1.43894	0.00003
1.92753	1.43887	0.00003
1.93349	1.43879	0.00003
1.93949	1.43872	0.00004
1.94553	1.43864	0.00004
1.95160	1.43856	0.00004
1.95771	1.43848	0.00004
1.96386	1.43840	0.00004
1.97006	1.43832	0.00004
1.97628	1.43824	0.00004
1.98255	1.43816	0.00004
1.98886	1.43808	0.00004
1.99521	1.43799	0.00004
2.00160	1.43791	0.00004
2.00803	1.43782	0.00004
2.01450	1.43774	0.00004
2.02102	1.43765	0.00004
2.02758	1.43756	0.00004
2.03417	1.43747	0.00004
2.04082	1.43738	0.00004
2.04750	1.43729	0.00004
2.05423	1.43720	0.00004
2.06101	1.43711	0.00004
2.06782	1.43701	0.00004
2.07469	1.43692	0.00004
2.08160	1.43682	0.00004
2.08855	1.43673	0.00004
2.09556	1.43663	0.00004
2.10261	1.43653	0.00005
2.10970	1.43643	0.00005
2.11685	1.43633	0.00005
2.12404	1.43623	0.00005
2.13129	1.43612	0.00005
2.13858	1.43602	0.00005
2.14592	1.43591	0.00005
2.15332	1.43581	0.00005
2.16076	1.43570	0.00005
2.16826	1.43559	0.00005
2.17581	1.43548	0.00005
2.18341	1.43537	0.00005
2.19106	1.43525	0.00005
2.19877	1.43514	0.00005
2.20653	1.43503	0.00005
2.21435	1.43491	0.00005
2.22222	1.43479	0.00005
2.23015	1.43467	0.00005
2.23814	1.43455	0.00005
2.24618	1.43443	0.00006
2.25428	1.43431	0.00006
2.26244	1.43418	0.00006
2.27066	1.43405	0.00006
2.27894	1.43393	0.00006
2.28728	1.43380	0.00006
2.29568	1.43367	0.00006
2.30415	1.43353	0.00006
2.31267	1.43340	0.00006
2.32126	1.43326	0.00006
2.32992	1.43313	0.00006
2.33863	1.43299	0.00006
2.34742	1.43285	0.00006
2.35627	1.43270	0.00006
2.36518	1.43256	0.00006
2.37417	1.43241	0.00007
2.38322	1.43227	0.00007
2.39234	1.43212	0.00007
2.40154	1.43197	0.00007
2.41080	1.43181	0.00007
2.42014	1.43166	0.00007
2.42954	1.43150	0.00007
2.43902	1.43134	0.00007
2.44858	1.43118	0.00007
2.45821	1.43102	0.00007
2.46792	1.43085	0.00007
2.47770	1.43068	0.00007
2.48756	1.43051	0.00008
2.49750	1.43034	0.00008
2.50752	1.43017	0.00008
2.51762	1.42999	0.00008
2.52781	1.42981	0.00008
2.53807	1.42963	0.00008
2.54842	1.42945	0.00008
2.55885	1.42926	0.00008
2.56937	1.42907	0.00008
2.57998	1.42888	0.00008
2.59067	1.42869	0.00009
2.60146	1.42849	0.00009
2.61233	1.42829	0.00009
2.62329	1.42809	0.00009
2.63435	1.42788	0.00009
2.64550	1.42767	0.00009
2.65675	1.42746	0.00009
2.66809	1.42725	0.00009
2.67953	1.42703	0.00010
2.69107	1.42681	0.00010
2.70270	1.42659	0.00010
2.71444	1.42636	0.00010
2.72628	1.42614	0.00010
2.73823	1.42590	0.00010
2.75028	1.42567	0.00010
2.76243	1.42543	0.00010
2.77469	1.42518	0.00011
2.78707	1.42494	0.00011
2.79955	1.42468	0.00011
2.81215	1.42443	0.00011
2.82486	1.42417	0.00011
2.83768	1.42391	0.00011
2.85063	1.42364	0.00012
2.86369	1.42337	0.00012
2.87687	1.42310	0.00012
2.89017	1.42282	0.00012
2.90360	1.42254	0.00012
2.91715	1.42225	0.00012
2.93083	1.42196	0.00013
2.94464	1.42166	0.00013
2.95858	1.42136	0.00013
2.97265	1.42105	0.00013
2.98686	1.42074	0.00013
3.00120	1.42042	0.00014
3.01568	1.42010	0.00014
3.03030	1.41977	0.00014
3.04507	1.41944	0.00014
3.05998	1.41910	0.00014
3.07503	1.41875	0.00015
3.09023	1.41840	0.00015
3.10559	1.41805	0.00015
3.12110	1.41769	0.00015
3.13676	1.41732	0.00016
3.15259	1.41694	0.00016
3.16857	1.41656	0.00016
3.18471	1.41617	0.00016
3.20102	1.41578	0.00017
3.21750	1.41537	0.00017
3.23415	1.41496	0.00017
3.25098	1.41455	0.00018
3.26797	1.41412	0.00018
3.28515	1.41369	0.00018
3.30251	1.41325	0.00018
3.32005	1.41280	0.00019
3.33778	1.41234	0.00019
3.35570	1.41187	0.00019
3.37382	1.41140	0.00020
3.39213	1.41092	0.00020
3.41064	1.41042	0.00021
3.42936	1.40992	0.00021
3.44828	1.40940	0.00021
3.46741	1.40888	0.00022
3.48675	1.40835	0.00022
3.50631	1.40780	0.00022
3.52609	1.40724	0.00023
3.54610	1.40668	0.00023
3.56633	1.40610	0.00024
3.58680	1.40551	0.00024
3.60750	1.40490	0.00025
3.62845	1.40429	0.00025
3.64964	1.40366	0.00026
3.67107	1.40301	0.00026
3.69276	1.40235	0.00027
3.71471	1.40168	0.00027
3.73692	1.40100	0.00028
3.75940	1.40029	0.00028
3.78215	1.39958	0.00029
3.80518	1.39884	0.00029
3.82848	1.39809	0.00030
3.85208	1.39732	0.00031
3.87597	1.39653	0.00031
3.90016	1.39573	0.00032
3.92465	1.39490	0.00032
3.94945	1.39406	0.00033
3.97456	1.39319	0.00034
4.00000	1.39231	0.00035
4.02576	1.39140	0.00035
4.05186	1.39047	0.00036
4.07830	1.38951	0.00037
4.10509	1.38853	0.00038
4.13223	1.38753	0.00039
4.15973	1.38650	0.00039
4.18760	1.38544	0.00040
4.21585	1.38435	0.00041
4.24448	1.38324	0.00042
4.27350	1.38209	0.00043
4.30293	1.38091	0.00044
4.33276	1.37970	0.00045
4.36300	1.37845	0.00047
4.39367	1.37717	0.00048
4.42478	1.37585	0.00049
4.45633	1.37449	0.00050
4.48833	1.37309	0.00051
4.52080	1.37165	0.00053
4.55373	1.37017	0.00054
4.58716	1.36864	0.00055
4.62107	1.36706	0.00057
4.65549	1.36543	0.00058
4.69043	1.36374	0.00060
4.72590	1.36201	0.00062
4.76190	1.36021	0.00063
4.79846	1.35835	0.00065
4.83559	1.35643	0.00067
4.87329	1.35445	0.00069
4.91159	1.35239	0.00071
4.95050	1.35026	0.00073
4.99002	1.34805	0.00075
5.03018	1.34575	0.00078
5.07099	1.34337	0.00080
5.11247	1.34090	0.00082
5.15464	1.33833	0.00085
5.19751	1.33566	0.00088
5.24109	1.33288	0.00091
5.28541	1.32999	0.00094
5.33049	1.32697	0.00097
5.37634	1.32382	0.00100
5.42299	1.32053	0.00104
5.47046	1.31710	0.00108
5.51876	1.31350	0.00112
5.56793	1.30974	0.00116
5.61798	1.30579	0.00120
5.66893	1.30165	0.00125
5.72082	1.29730	0.00130
5.77367	1.29272	0.00135
5.82751	1.28789	0.00141
5.88235	1.28281	0.00147
5.93824	1.27743	0.00153
5.99520	1.27174	0.00160
6.05327	1.26571	0.00168
6.11247	1.25931	0.00176
6.17284	1.25249	0.00185
6.23441	1.24523	0.00195
6.29723	1.23747	0.00205
6.36132	1.22915	0.00217
6.42674	1.22022	0.00230
6.49351	1.21059	0.00244
6.56168	1.20019	0.00261
6.63130	1.18890	0.00279
6.70241	1.17661	0.00300
6.77507	1.16316	0.00325
6.84932	1.14838	0.00354
6.92521	1.13204	0.00389
7.00280	1.11384	0.00432
7.08215	1.09343	0.00486
7.16332	1.07032	0.00558
7.24638	1.04388	0.00657
7.33138	1.01319	0.00800
7.41840	0.97700	0.01022
7.50751	0.93343	0.01390
7.59878	0.87963	0.02058
7.69231	0.81140	0.03388
7.78816	0.72356	0.06272
7.88644	0.61646	0.12770
7.98722	0.52132	0.25340
8.09061	0.48459	0.40924
8.19672	0.49223	0.55563
8.30565	0.53216	0.67628
8.41751	0.56333	0.75958
8.53242	0.56761	0.84504
8.65052	0.53562	0.94547
8.77193	0.48134	1.13242
8.89680	0.47462	1.43703
9.02527	0.64924	1.84907
9.15751	1.07250	2.16419
9.29368	1.62714	2.30736
9.43396	2.22394	2.16431
9.57854	2.68488	1.78965
9.72763	2.90744	1.28965
9.88142	2.92035	0.80887
10.04016	2.76904	0.45759
10.20408	2.57040	0.22569
10.37344	2.36687	0.10802
10.54852	2.20442	0.06100
10.72961	2.07964	0.04446
10.91703	1.97980	0.04317
11.11111	1.89719	0.05366
11.31222	1.83045	0.07525
11.52074	1.78044	0.10464
11.73709	1.74636	0.13940
11.96172	1.73248	0.17672
12.19512	1.73783	0.20453
12.43781	1.75367	0.22019
12.69036	1.77610	0.21842
12.95337	1.79390	0.20292
13.22751	1.80528	0.17513
13.51351	1.80239	0.14169
13.81215	1.78948	0.11065
14.12429	1.76854	0.08189
