Material: main / SiO2 / Lemarchand
Optical constants. F. Lemarchand, private communications (2013). Measurement method described in:L. Gao, F. Lemarchand, and M. Lequime. Exploitation of multiple incidences spectrometric measurements for thin film reverse engineering, Opt. Express 20, 15734-15751 (2012)
Comments: 580-nm monolayer deposited on BK7 substrate using the magnetron sputtering technique.
wavelength (um)	n	k
0.250	1.517462	0.000260
0.260	1.513136	0.000222
0.270	1.509329	0.000191
0.280	1.505961	0.000167
0.290	1.502966	0.000148
0.300	1.500288	0.000132
0.310	1.497885	0.000118
0.320	1.495719	0.000107
0.330	1.493759	0
0.340	1.491981	0
0.350	1.490361	0
0.360	1.488882	0
0.370	1.487527	0
0.380	1.486282	0
0.390	1.485137	0
0.400	1.484080	0
0.410	1.483102	0
0.420	1.482197	0
0.430	1.481356	0
0.440	1.480573	0
0.450	1.479844	0
0.460	1.479164	0
0.470	1.478528	0
0.480	1.477932	0
0.490	1.477374	0
0.500	1.476849	0
0.510	1.476356	0
0.520	1.475892	0
0.530	1.475455	0
0.540	1.475042	0
0.550	1.474652	0
0.560	1.474283	0
0.570	1.473933	0
0.580	1.473602	0
0.590	1.473288	0
0.600	1.472990	0
0.610	1.472707	0
0.620	1.472437	0
0.630	1.472181	0
0.640	1.471936	0
0.650	1.471703	0
0.660	1.471481	0
0.670	1.471268	0
0.680	1.471065	0
0.690	1.470871	0
0.700	1.470686	0
0.710	1.470508	0
0.720	1.470338	0
0.730	1.470174	0
0.740	1.470018	0
0.750	1.469867	0
0.760	1.469723	0
0.770	1.469584	0
0.780	1.469451	0
0.790	1.469323	0
0.800	1.469199	0
0.810	1.469080	0
0.820	1.468966	0
0.830	1.468855	0
0.840	1.468749	0
0.850	1.468646	0
0.860	1.468547	0
0.870	1.468452	0
0.880	1.468360	0
0.890	1.468270	0
0.900	1.468184	0
0.910	1.468101	0
0.920	1.468020	0
0.930	1.467942	0
0.940	1.467866	0
0.950	1.467793	0
0.960	1.467722	0
0.970	1.467654	0
0.980	1.467587	0
0.990	1.467523	0
1.000	1.467460	0
1.010	1.467399	0
1.020	1.467340	0
1.030	1.467283	0
1.040	1.467227	0
1.050	1.467173	0
1.060	1.467121	0
1.070	1.467070	0
1.080	1.467020	0
1.090	1.466972	0
1.100	1.466925	0
1.110	1.466880	0
1.120	1.466835	0
1.130	1.466792	0
1.140	1.466750	0
1.150	1.466709	0
1.160	1.466669	0
1.170	1.466630	0
1.180	1.466592	0
1.190	1.466555	0
1.200	1.466519	0
1.210	1.466484	0
1.220	1.466450	0
1.230	1.466416	0
1.240	1.466384	0
1.250	1.466352	0
1.260	1.466321	0
1.270	1.466290	0
1.280	1.466261	0
1.290	1.466232	0
1.300	1.466204	0
1.310	1.466176	0
1.320	1.466149	0
1.330	1.466123	0
1.340	1.466097	0
1.350	1.466071	0
1.360	1.466047	0
1.370	1.466023	0
1.380	1.465999	0
1.390	1.465976	0
1.400	1.465953	0
1.410	1.465931	0
1.420	1.465910	0
1.430	1.465888	0
1.440	1.465868	0
1.450	1.465847	0
1.460	1.465827	0
1.470	1.465808	0
1.480	1.465789	0
1.490	1.465770	0
1.500	1.465752	0
1.510	1.465734	0
1.520	1.465716	0
1.530	1.465699	0
1.540	1.465682	0
1.550	1.465665	0
1.560	1.465649	0
1.570	1.465633	0
1.580	1.465617	0
1.590	1.465602	0
1.600	1.465587	0
1.610	1.465572	0
1.620	1.465557	0
1.630	1.465543	0
1.640	1.465529	0
1.650	1.465515	0
1.660	1.465502	0
1.670	1.465488	0
1.680	1.465475	0
1.690	1.465462	0
1.700	1.465450	0
1.710	1.465438	0
1.720	1.465425	0
1.730	1.465413	0
1.740	1.465402	0
1.750	1.465390	0
1.760	1.465379	0
1.770	1.465368	0
1.780	1.465357	0
1.790	1.465346	0
1.800	1.465335	0
1.810	1.465325	0
1.820	1.465315	0
1.830	1.465305	0
1.840	1.465295	0
1.850	1.465285	0
1.860	1.465275	0
1.870	1.465266	0
1.880	1.465257	0
1.890	1.465248	0
1.900	1.465239	0
1.910	1.465230	0
1.920	1.465221	0
1.930	1.465212	0
1.940	1.465204	0
1.950	1.465196	0
1.960	1.465187	0
1.970	1.465179	0
1.980	1.465171	0
1.990	1.465164	0
2.000	1.465156	0
2.010	1.465148	0
2.020	1.465141	0
2.030	1.465133	0
2.040	1.465126	0
2.050	1.465119	0
2.060	1.465112	0
2.070	1.465105	0
2.080	1.465098	0
2.090	1.465091	0
2.100	1.465085	0
2.110	1.465078	0
2.120	1.465072	0
2.130	1.465065	0
2.140	1.465059	0
2.150	1.465053	0
2.160	1.465047	0
2.170	1.465041	0
2.180	1.465035	0
2.190	1.465029	0
2.200	1.465023	0
2.210	1.465017	0
2.220	1.465012	0
2.230	1.465006	0
2.240	1.465001	0
2.250	1.464995	0
2.260	1.464990	0
2.270	1.464985	0
2.280	1.464980	0
2.290	1.464974	0
2.300	1.464969	0
2.310	1.464964	0
2.320	1.464959	0
2.330	1.464955	0
2.340	1.464950	0
2.350	1.464945	0
2.360	1.464940	0
2.370	1.464936	0
2.380	1.464931	0
2.390	1.464927	0
2.400	1.464922	0
2.410	1.464918	0
2.420	1.464913	0
2.430	1.464909	0
2.440	1.464905	0
2.450	1.464901	0
2.460	1.464897	0
2.470	1.464892	0
2.480	1.464888	0
2.490	1.464884	0
2.500	1.464881	0
