Material: main / ZnO / Stelling
Optical constants. C. Stelling, C. R. Singh, M. Karg, T. A. F. König, M. Thelakkat, M. Retsch. Plasmonic nanomeshes: their ambivalent role as transparent electrodes in organic solar cells, Sci. Rep. 7, 42530 (2017) - see Supplementary information (Numerical data kindly provided by Tobias König)
Comments: Isotropic ZnO thin film (thickness 40 nm) on silicon substrate.
wavelength (um)	n	k
0.30158	1.706525	0.169525
0.30478	1.701189	0.160309
0.30798	1.696302	0.154522
0.31118	1.692719	0.151259
0.31438	1.690820	0.149522
0.31758	1.690553	0.148421
0.32078	1.691562	0.147336
0.32398	1.693379	0.145998
0.32718	1.695632	0.144460
0.33038	1.698203	0.142956
0.33358	1.701285	0.141686
0.33678	1.705283	0.140602
0.33998	1.710591	0.139291
0.34318	1.717336	0.137038
0.34637	1.725205	0.133046
0.34957	1.733452	0.126714
0.35277	1.741079	0.117865
0.35597	1.747095	0.106815
0.35917	1.750768	0.094275
0.36237	1.751758	0.081169
0.36556	1.750134	0.068412
0.36876	1.746291	0.056750
0.37196	1.740811	0.046661
0.37516	1.734326	0.038348
0.37835	1.727407	0.031783
0.38155	1.720505	0.026782
0.38475	1.713926	0.023077
0.38794	1.707845	0.020386
0.39114	1.702335	0.018447
0.39434	1.697400	0.017042
0.39753	1.693000	0.016001
0.40073	1.689079	0.015200
0.40392	1.685571	0.014550
0.40712	1.682415	0.013990
0.41032	1.679554	0.013479
0.41351	1.676940	0.012991
0.41671	1.674531	0.012511
0.41990	1.672292	0.012029
0.42309	1.670194	0.011540
0.42629	1.668212	0.011043
0.42948	1.666326	0.010538
0.43268	1.664519	0.010027
0.43587	1.662777	0.009512
0.43906	1.661089	0.008997
0.44226	1.659445	0.008485
0.44545	1.657838	0.007980
0.44864	1.656260	0.007483
0.45183	1.654707	0.007000
0.45503	1.653174	0.006532
0.45822	1.651656	0.006082
0.46141	1.650148	0.005654
0.46460	1.648647	0.005251
0.46779	1.647150	0.004879
0.47098	1.645651	0.004542
0.47417	1.644151	0.004247
0.47736	1.642647	0.004004
0.48055	1.641142	0.003821
0.48374	1.639641	0.003708
0.48693	1.638151	0.003676
0.49012	1.636686	0.003730
0.49331	1.635260	0.003877
0.49650	1.633893	0.004117
0.49969	1.632604	0.004442
0.50287	1.631411	0.004843
0.50606	1.630330	0.005299
0.50925	1.629372	0.005789
0.51243	1.628541	0.006284
0.51562	1.627832	0.006757
0.51881	1.627232	0.007181
0.52199	1.626721	0.007533
0.52518	1.626272	0.007798
0.52836	1.625854	0.007968
0.53155	1.625436	0.008043
0.53473	1.624987	0.008036
0.53791	1.624480	0.007965
0.54110	1.623896	0.007856
0.54428	1.623223	0.007740
0.54746	1.622459	0.007650
0.55065	1.621610	0.007618
0.55383	1.620691	0.007675
0.55701	1.619725	0.007844
0.56019	1.618741	0.008146
0.56337	1.617771	0.008589
0.56655	1.616850	0.009177
0.56973	1.616013	0.009903
0.57291	1.615293	0.010753
0.57609	1.614717	0.011704
0.57927	1.614309	0.012729
0.58245	1.614084	0.013795
0.58562	1.614051	0.014867
0.58880	1.614210	0.015909
0.59198	1.614554	0.016885
0.59515	1.615069	0.017762
0.59833	1.615734	0.018513
0.60151	1.616523	0.019113
0.60468	1.617409	0.019545
0.60786	1.618358	0.019799
0.61103	1.619340	0.019868
0.61420	1.620323	0.019755
0.61738	1.621278	0.019467
0.62055	1.622178	0.019015
0.62372	1.623001	0.018416
0.62689	1.623727	0.017689
0.63006	1.624342	0.016854
0.63323	1.624836	0.015933
0.63640	1.625203	0.014949
0.63957	1.625442	0.013923
0.64274	1.625554	0.012875
0.64591	1.625543	0.011824
0.64908	1.625418	0.010786
0.65225	1.625186	0.009776
0.65541	1.624859	0.008805
0.65858	1.624447	0.007881
0.66175	1.623962	0.007013
0.66491	1.623415	0.006205
0.66808	1.622818	0.005460
0.67124	1.622182	0.004778
0.67441	1.621515	0.004160
0.67757	1.620826	0.003603
0.68073	1.620124	0.003106
0.68389	1.619415	0.002664
0.68706	1.618705	0.002275
0.69022	1.617998	0.001934
0.69338	1.617299	0.001637
0.69654	1.616611	0.001380
0.69970	1.615934	0.001159
0.70285	1.615273	0.000969
0.70601	1.614626	0.000807
0.70917	1.613995	0.000670
0.71233	1.613380	0.000554
0.71548	1.612780	0.000457
0.71864	1.612196	0.000376
0.72179	1.611625	0.000308
0.72495	1.611069	0.000252
0.72810	1.610525	0.000205
0.73125	1.609992	0.000167
0.73441	1.609469	0.000136
0.73756	1.608956	0.000111
0.74071	1.608450	0.000092
0.74386	1.607950	0.000077
0.74701	1.607456	0.000066
0.75016	1.606965	0.000059
0.75331	1.606477	0.000056
0.75646	1.605989	0.000057
0.75960	1.605501	0.000062
0.76275	1.605012	0.000073
0.76590	1.604519	0.000090
0.76904	1.604022	0.000114
0.77219	1.603520	0.000147
0.77533	1.603011	0.000190
0.77847	1.602496	0.000245
0.78162	1.601974	0.000315
0.78476	1.601444	0.000402
0.78790	1.600907	0.000509
0.79104	1.600364	0.000638
0.79418	1.599816	0.000793
0.79732	1.599265	0.000976
0.80046	1.598714	0.001191
0.80359	1.598165	0.001439
0.80673	1.597623	0.001724
0.80987	1.597092	0.002046
0.81300	1.596576	0.002408
0.81614	1.596081	0.002809
0.81927	1.595612	0.003249
0.82240	1.595176	0.003728
0.82554	1.594777	0.004244
0.82867	1.594422	0.004792
0.83180	1.594117	0.005370
0.83493	1.593865	0.005972
0.83806	1.593672	0.006593
0.84119	1.593540	0.007225
0.84431	1.593474	0.007863
0.84744	1.593473	0.008497
0.85057	1.593540	0.009121
0.85369	1.593672	0.009726
0.85682	1.593869	0.010304
0.85994	1.594127	0.010847
0.86306	1.594442	0.011347
0.86618	1.594809	0.011799
0.86931	1.595221	0.012196
0.87243	1.595673	0.012534
0.87555	1.596156	0.012808
0.87866	1.596664	0.013016
0.88178	1.597186	0.013155
0.88490	1.597717	0.013225
0.88802	1.598247	0.013227
0.89113	1.598770	0.013162
0.89425	1.599276	0.013033
0.89736	1.599761	0.012843
0.90047	1.600218	0.012595
0.90359	1.600641	0.012296
0.90670	1.601026	0.011949
0.90981	1.601369	0.011561
0.91292	1.601668	0.011137
0.91602	1.601919	0.010684
0.91913	1.602122	0.010207
0.92224	1.602277	0.009711
0.92535	1.602382	0.009204
0.92845	1.602440	0.008689
0.93155	1.602452	0.008172
0.93466	1.602419	0.007657
0.93776	1.602343	0.007149
0.94086	1.602227	0.006651
0.94396	1.602075	0.006166
0.94706	1.601888	0.005697
0.95016	1.601671	0.005247
0.95326	1.601425	0.004816
0.95635	1.601155	0.004407
0.95945	1.600863	0.004020
0.96255	1.600553	0.003655
0.96564	1.600227	0.003314
0.96873	1.599888	0.002996
0.97182	1.599538	0.002701
0.97492	1.599180	0.002428
0.97801	1.598817	0.002177
0.98109	1.598449	0.001947
0.98418	1.598078	0.001736
0.98727	1.597707	0.001544
0.99036	1.597336	0.001371
0.99344	1.596967	0.001213
0.99653	1.596600	0.001071
0.99961	1.596236	0.000944
1.01567	1.594416	0.000471
1.02248	1.593688	0.000344
1.02929	1.592986	0.000250
1.03609	1.592311	0.000179
1.04290	1.591660	0.000128
1.04970	1.591030	0.000090
1.05651	1.590421	0.000063
1.06331	1.589829	0.000044
1.07011	1.589252	0.000031
1.07692	1.588688	0.000022
1.08372	1.588135	0.000015
1.09052	1.587592	0.000011
1.09733	1.587057	0.000009
1.10413	1.586529	0.000008
1.11093	1.586006	0.000008
1.11773	1.585487	0.000009
1.12453	1.584972	0.000012
1.13134	1.584460	0.000015
1.13814	1.583950	0.000020
1.14494	1.583441	0.000027
1.15175	1.582933	0.000035
1.15855	1.582424	0.000046
1.16535	1.581916	0.000060
1.17216	1.581407	0.000076
1.17896	1.580898	0.000097
1.18577	1.580388	0.000122
1.19258	1.579877	0.000151
1.19938	1.579365	0.000186
1.20619	1.578853	0.000227
1.21300	1.578340	0.000275
1.21981	1.577828	0.000329
1.22662	1.577317	0.000391
1.23343	1.576807	0.000461
1.24025	1.576300	0.000540
1.24706	1.575795	0.000626
1.25388	1.575295	0.000721
1.26069	1.574800	0.000825
1.26751	1.574311	0.000936
1.27433	1.573829	0.001055
1.28115	1.573354	0.001182
1.28798	1.572889	0.001314
1.29480	1.572434	0.001453
1.30163	1.571989	0.001596
1.30845	1.571555	0.001743
1.31528	1.571133	0.001892
1.32212	1.570723	0.002043
1.32895	1.570325	0.002193
1.33578	1.569939	0.002342
1.34262	1.569566	0.002487
1.34946	1.569204	0.002629
1.35630	1.568854	0.002765
1.36315	1.568515	0.002893
1.36999	1.568186	0.003014
1.37684	1.567865	0.003126
1.38369	1.567553	0.003227
1.39055	1.567248	0.003318
1.39740	1.566948	0.003397
1.40426	1.566653	0.003464
1.41112	1.566361	0.003518
1.41798	1.566071	0.003559
1.42485	1.565782	0.003587
1.43172	1.565492	0.003603
1.43859	1.565200	0.003605
1.44547	1.564904	0.003596
1.45235	1.564605	0.003574
1.45923	1.564299	0.003541
1.46611	1.563988	0.003498
1.47300	1.563670	0.003444
1.47989	1.563343	0.003381
1.48678	1.563008	0.003309
1.49368	1.562664	0.003230
1.50058	1.562310	0.003144
1.50749	1.561947	0.003052
1.51440	1.561573	0.002955
1.52131	1.561189	0.002854
1.52822	1.560795	0.002749
1.53514	1.560390	0.002642
1.54206	1.559975	0.002534
1.54899	1.559549	0.002424
1.55592	1.559114	0.002314
1.56286	1.558669	0.002204
1.56980	1.558215	0.002094
1.57674	1.557751	0.001987
1.58369	1.557279	0.001881
1.59064	1.556799	0.001777
1.59759	1.556311	0.001676
1.60455	1.555815	0.001577
1.61152	1.555312	0.001482
1.61849	1.554803	0.001390
1.62546	1.554287	0.001302
1.63244	1.553766	0.001217
1.63942	1.553238	0.001136
1.64641	1.552706	0.001059
1.65340	1.552169	0.000985
1.66039	1.551628	0.000915
1.66740	1.551082	0.000849
1.67440	1.550532	0.000787
1.68141	1.549979	0.000728
