Material: main / Al2O3 / Kischkat
Optical constants. J. Kischkat, S. Peters, B. Gruska, M. Semtsiv, M. Chashnikova, M. Klinkm√ºller, O. Fedosenko, S. Machulik, A. Aleksandrova, G. Monastyrskyi, Y. Flores, and W. T. Masselink. Mid-infrared optical properties of thin films of aluminum oxide, titanium dioxide, silicon dioxide, aluminum nitride, and silicon nitride, Appl. Opt. 51, 6789-6798 (2012) (Numerical data kindly provided by Jan Kischkat)
Comments: 497-nm single layer on Si substrate. Prepared by room temperature reactive sputter deposition using Al target and 2.0 SCCM O2 flux.Data on the influence of deposition conditions on the optical properties of the film can be found in the original publication.Data on the refractive index (n) in the visible can be found in the original publication.
wavelength (um)	n	k
1.53941	1.62158	0.00008
1.54321	1.62153	0.00008
1.54703	1.62149	0.00008
1.55087	1.62144	0.00008
1.55473	1.62140	0.00008
1.55860	1.62135	0.00009
1.56250	1.62130	0.00009
1.56642	1.62125	0.00009
1.57035	1.62121	0.00009
1.57431	1.62116	0.00009
1.57828	1.62111	0.00009
1.58228	1.62106	0.00009
1.58629	1.62101	0.00009
1.59033	1.62096	0.00009
1.59439	1.62091	0.00009
1.59847	1.62086	0.00009
1.60256	1.62081	0.00009
1.60668	1.62076	0.00009
1.61082	1.62071	0.00009
1.61499	1.62065	0.00010
1.61917	1.62060	0.00010
1.62338	1.62055	0.00010
1.62760	1.62049	0.00010
1.63185	1.62044	0.00010
1.63613	1.62039	0.00010
1.64042	1.62033	0.00010
1.64474	1.62028	0.00010
1.64908	1.62022	0.00010
1.65344	1.62016	0.00010
1.65782	1.62011	0.00010
1.66223	1.62005	0.00010
1.66667	1.61999	0.00010
1.67112	1.61993	0.00011
1.67560	1.61988	0.00011
1.68011	1.61982	0.00011
1.68464	1.61976	0.00011
1.68919	1.61970	0.00011
1.69377	1.61964	0.00011
1.69837	1.61958	0.00011
1.70300	1.61951	0.00011
1.70765	1.61945	0.00011
1.71233	1.61939	0.00011
1.71703	1.61933	0.00011
1.72176	1.61926	0.00012
1.72652	1.61920	0.00012
1.73130	1.61914	0.00012
1.73611	1.61907	0.00012
1.74095	1.61900	0.00012
1.74581	1.61894	0.00012
1.75070	1.61887	0.00012
1.75562	1.61880	0.00012
1.76056	1.61874	0.00012
1.76554	1.61867	0.00013
1.77054	1.61860	0.00013
1.77557	1.61853	0.00013
1.78063	1.61846	0.00013
1.78571	1.61839	0.00013
1.79083	1.61832	0.00013
1.79598	1.61824	0.00013
1.80115	1.61817	0.00013
1.80636	1.61810	0.00013
1.81159	1.61802	0.00014
1.81686	1.61795	0.00014
1.82216	1.61787	0.00014
1.82749	1.61780	0.00014
1.83284	1.61772	0.00014
1.83824	1.61764	0.00014
1.84366	1.61756	0.00014
1.84911	1.61748	0.00014
1.85460	1.61741	0.00015
1.86012	1.61732	0.00015
1.86567	1.61724	0.00015
1.87126	1.61716	0.00015
1.87688	1.61708	0.00015
1.88253	1.61700	0.00015
1.88822	1.61691	0.00015
1.89394	1.61683	0.00016
1.89970	1.61674	0.00016
1.90549	1.61665	0.00016
1.91131	1.61657	0.00016
1.91718	1.61648	0.00016
1.92308	1.61639	0.00016
1.92901	1.61630	0.00016
1.93498	1.61621	0.00017
1.94099	1.61612	0.00017
1.94704	1.61603	0.00017
1.95313	1.61593	0.00017
1.95925	1.61584	0.00017
1.96541	1.61574	0.00017
1.97161	1.61565	0.00018
1.97785	1.61555	0.00018
1.98413	1.61545	0.00018
1.99045	1.61535	0.00018
1.99681	1.61525	0.00018
2.00321	1.61515	0.00018
2.00965	1.61505	0.00019
2.01613	1.61495	0.00019
2.02265	1.61484	0.00019
2.02922	1.61474	0.00019
2.03583	1.61463	0.00019
2.04248	1.61453	0.00020
2.04918	1.61442	0.00020
2.05592	1.61431	0.00020
2.06271	1.61420	0.00020
2.06954	1.61409	0.00020
2.07641	1.61397	0.00021
2.08333	1.61386	0.00021
2.09030	1.61375	0.00021
2.09732	1.61363	0.00021
2.10438	1.61351	0.00022
2.11149	1.61339	0.00022
2.11864	1.61327	0.00022
2.12585	1.61315	0.00022
2.13311	1.61303	0.00022
2.14041	1.61291	0.00023
2.14777	1.61278	0.00023
2.15517	1.61266	0.00023
2.16263	1.61253	0.00023
2.17014	1.61240	0.00024
2.17770	1.61227	0.00024
2.18531	1.61214	0.00024
2.19298	1.61201	0.00025
2.20070	1.61187	0.00025
2.20848	1.61173	0.00025
2.21631	1.61160	0.00025
2.22420	1.61146	0.00026
2.23214	1.61132	0.00026
2.24014	1.61118	0.00026
2.24820	1.61103	0.00027
2.25632	1.61089	0.00027
2.26449	1.61074	0.00027
2.27273	1.61059	0.00027
2.28102	1.61044	0.00028
2.28938	1.61029	0.00028
2.29779	1.61014	0.00028
2.30627	1.60998	0.00029
2.31481	1.60982	0.00029
2.32342	1.60966	0.00029
2.33209	1.60950	0.00030
2.34082	1.60934	0.00030
2.34962	1.60918	0.00030
2.35849	1.60901	0.00031
2.36742	1.60884	0.00031
2.37643	1.60867	0.00032
2.38550	1.60850	0.00032
2.39464	1.60832	0.00032
2.40385	1.60815	0.00033
2.41313	1.60797	0.00033
2.42248	1.60779	0.00034
2.43191	1.60760	0.00034
2.44141	1.60742	0.00034
2.45098	1.60723	0.00035
2.46063	1.60704	0.00035
2.47036	1.60685	0.00036
2.48016	1.60665	0.00036
2.49004	1.60646	0.00037
2.50000	1.60626	0.00037
2.51004	1.60606	0.00038
2.52016	1.60585	0.00038
2.53036	1.60564	0.00039
2.54065	1.60543	0.00039
2.55102	1.60522	0.00040
2.56148	1.60501	0.00040
2.57202	1.60479	0.00041
2.58264	1.60457	0.00041
2.59336	1.60434	0.00042
2.60417	1.60412	0.00042
2.61506	1.60389	0.00043
2.62605	1.60366	0.00043
2.63713	1.60342	0.00044
2.64831	1.60318	0.00045
2.65957	1.60294	0.00045
2.67094	1.60270	0.00046
2.68240	1.60245	0.00046
2.69397	1.60220	0.00047
2.70563	1.60194	0.00048
2.71739	1.60168	0.00048
2.72926	1.60142	0.00049
2.74123	1.60115	0.00050
2.75330	1.60089	0.00050
2.76549	1.60061	0.00051
2.77778	1.60034	0.00052
2.79018	1.60005	0.00053
2.80269	1.59977	0.00053
2.81532	1.59948	0.00054
2.82805	1.59919	0.00055
2.84091	1.59889	0.00056
2.85388	1.59859	0.00057
2.86697	1.59828	0.00057
2.88018	1.59797	0.00058
2.89352	1.59766	0.00059
2.90698	1.59734	0.00060
2.92056	1.59702	0.00061
2.93427	1.59669	0.00062
2.94811	1.59635	0.00063
2.96209	1.59602	0.00064
2.97619	1.59567	0.00065
2.99043	1.59532	0.00066
3.00481	1.59497	0.00067
3.01932	1.59461	0.00068
3.03398	1.59424	0.00069
3.04878	1.59387	0.00070
3.06373	1.59350	0.00071
3.07882	1.59311	0.00072
3.09406	1.59272	0.00074
3.10945	1.59233	0.00075
3.12500	1.59193	0.00076
3.14070	1.59152	0.00077
3.15657	1.59111	0.00079
3.17259	1.59069	0.00080
3.18878	1.59026	0.00081
3.20513	1.58983	0.00083
3.22165	1.58938	0.00084
3.23834	1.58893	0.00086
3.25521	1.58848	0.00087
3.27225	1.58801	0.00089
3.28947	1.58754	0.00090
3.30688	1.58706	0.00092
3.32447	1.58657	0.00093
3.34225	1.58608	0.00095
3.36022	1.58557	0.00097
3.37838	1.58506	0.00098
3.39674	1.58454	0.00100
3.41530	1.58400	0.00102
3.43407	1.58346	0.00104
3.45304	1.58291	0.00106
3.47222	1.58235	0.00108
3.49162	1.58178	0.00110
3.51124	1.58120	0.00112
3.53107	1.58061	0.00114
3.55114	1.58000	0.00116
3.57143	1.57939	0.00119
3.59195	1.57877	0.00121
3.61272	1.57813	0.00123
3.63372	1.57748	0.00126
3.65497	1.57682	0.00128
3.67647	1.57614	0.00131
3.69822	1.57546	0.00134
3.72024	1.57476	0.00136
3.74251	1.57404	0.00139
3.76506	1.57331	0.00142
3.78788	1.57257	0.00145
3.81098	1.57181	0.00148
3.83436	1.57104	0.00151
3.85802	1.57025	0.00154
3.88199	1.56945	0.00158
3.90625	1.56863	0.00161
3.93082	1.56779	0.00165
3.95570	1.56693	0.00168
3.98089	1.56606	0.00172
4.00641	1.56516	0.00176
4.03226	1.56425	0.00180
4.05844	1.56332	0.00184
4.08497	1.56237	0.00188
4.11184	1.56140	0.00193
4.13907	1.56041	0.00197
4.16667	1.55939	0.00202
4.19463	1.55835	0.00207
4.22297	1.55729	0.00212
4.25170	1.55620	0.00217
4.28082	1.55509	0.00222
4.31034	1.55395	0.00228
4.34028	1.55279	0.00233
4.37063	1.55160	0.00239
4.40141	1.55038	0.00245
4.43262	1.54913	0.00252
4.46429	1.54785	0.00258
4.49640	1.54654	0.00265
4.52899	1.54520	0.00272
4.56204	1.54382	0.00279
4.59559	1.54241	0.00287
4.62963	1.54096	0.00295
4.66418	1.53948	0.00303
4.69925	1.53796	0.00312
4.73485	1.53639	0.00320
4.77099	1.53479	0.00330
4.80769	1.53314	0.00339
4.84496	1.53145	0.00349
4.88281	1.52971	0.00359
4.92126	1.52793	0.00370
4.96032	1.52609	0.00381
5.00000	1.52420	0.00393
5.04032	1.52226	0.00405
5.08130	1.52027	0.00418
5.12295	1.51821	0.00432
5.16529	1.51610	0.00446
5.20833	1.51392	0.00460
5.25210	1.51167	0.00475
5.29661	1.50936	0.00491
5.34188	1.50697	0.00508
5.38793	1.50451	0.00526
5.43478	1.50198	0.00544
5.48246	1.49936	0.00564
5.53097	1.49665	0.00584
5.58036	1.49386	0.00605
5.63063	1.49097	0.00628
5.68182	1.48799	0.00652
5.73394	1.48490	0.00677
5.78704	1.48170	0.00703
5.84112	1.47839	0.00731
5.89623	1.47497	0.00760
5.95238	1.47142	0.00792
6.00962	1.46773	0.00825
6.06796	1.46391	0.00860
6.12745	1.45994	0.00897
6.18812	1.45582	0.00936
6.25000	1.45154	0.00979
6.31313	1.44708	0.01023
6.37755	1.44244	0.01071
6.44330	1.43761	0.01122
6.51042	1.43257	0.01177
6.57895	1.42732	0.01235
6.64894	1.42183	0.01298
6.72043	1.41610	0.01365
6.79348	1.41011	0.01438
6.86813	1.40383	0.01516
6.94444	1.39726	0.01600
7.02247	1.39037	0.01692
7.10227	1.38313	0.01791
7.18391	1.37552	0.01898
7.26744	1.36751	0.02016
7.35294	1.35908	0.02144
7.44048	1.35018	0.02284
7.53012	1.34077	0.02438
7.62195	1.33082	0.02607
7.71605	1.32028	0.02795
7.81250	1.30909	0.03002
7.91139	1.29719	0.03233
8.01282	1.28451	0.03490
8.11688	1.27098	0.03779
8.22368	1.25650	0.04104
8.33333	1.24098	0.04472
8.44595	1.22429	0.04891
8.56164	1.20631	0.05370
8.68056	1.18687	0.05922
8.80282	1.16579	0.06562
8.92857	1.14287	0.07309
9.05797	1.11786	0.08191
9.19118	1.09047	0.09240
9.32836	1.06037	0.10502
9.46970	1.02721	0.12040
9.61538	0.99058	0.13938
9.76563	0.95009	0.16316
9.92063	0.90550	0.19345
10.08065	0.85692	0.23263
10.24590	0.80537	0.28389
10.41667	0.75370	0.35097
10.59322	0.70742	0.43685
10.77586	0.67413	0.54138
10.96491	0.66041	0.66042
11.16071	0.66974	0.78838
11.36364	0.70376	0.92076
11.57407	0.76470	1.05408
11.79245	0.85657	1.18396
12.01923	0.98498	1.30251
12.25490	1.15452	1.39519
12.50000	1.36224	1.43901
12.75510	1.58722	1.40823
13.02083	1.78746	1.29327
13.29787	1.92065	1.11812
13.58696	1.97331	0.92738
13.88889	1.96126	0.75574
14.20455	1.90861	0.61654
