Material: main / Sr / Rodriguez-de Marcos
Optical constants. L. Rodríguez-de Marcos, J. I. Larruquert, J. A. Aznárez, M. Vidal-Dasilva1, S. García-Cortés, J. A. Méndez, L. Poletto, F. Frassetto, A. M. Malvezzi, D. Bajoni, A. Giglia, N. Mahne, S. Nannarone. Transmittance and optical constants of Sr films in the 6-1220 eV spectral range, J. Appl. Phys. 111, 113533 (2012) (Numerical data kindly provided by Juan Larruquert)
Comments: Density: 2.58 g/cm3. Film deposited at room temperature.
Specs: {"n_absolute": true, "wavelength_vacuum": true}
wavelength (um)	n	k
0.001011751	0.99973262	4.93818E-05
0.001028757	0.99972294	5.25081E-05
0.001046049	0.99971297	5.58324E-05
0.001063631	0.9997027	5.9367E-05
0.001081509	0.99969215	6.31255E-05
0.001099688	0.99968124	6.71219E-05
0.001118172	0.99967001	7.13713E-05
0.001136967	0.9996585	7.58897E-05
0.001156078	0.9996466	8.06942E-05
0.00117551	0.99963436	8.58029E-05
0.001195269	0.99962177	9.1235E-05
0.001215359	0.99960881	9.70109E-05
0.001235788	0.99959541	0.000103153
0.001256174	0.99958123	0.000110176
0.001275619	0.9995705	0.000117252
0.001295582	0.99955795	0.000123902
0.001316234	0.99954377	0.000132095
0.001337528	0.99953099	0.000134068
0.001359483	0.99951794	0.00014356
0.00138225	0.99950175	0.00015149
0.001405688	0.99948507	0.000157365
0.001430032	0.999465	0.000167351
0.001455254	0.9994479	0.000181639
0.001481266	0.99942949	0.000194577
0.001508312	0.99941494	0.000206549
0.001531504	0.99939905	0.000213325
0.001560369	0.99938028	0.000225738
0.001590357	0.99935886	0.000232504
0.001621617	0.99932379	0.000240794
0.001654027	0.99930303	0.000260231
0.001687769	0.9992542	0.000281205
0.001723045	0.99922262	0.000309728
0.001752333	0.99921935	0.000402347
0.001791562	0.99919206	0.0003616
0.001832641	0.99915833	0.000388966
0.001875589	0.99912728	0.000419704
0.00192046	0.99909532	0.000454652
0.001967539	0.99905884	0.000492567
0.002015052	0.99903251	0.000532872
0.002035182	0.99902116	0.00055523
0.002055572	0.99901278	0.000564353
0.002076453	0.99899764	0.000584969
0.002097496	0.99898818	0.000602032
0.002119389	0.99897652	0.000616643
0.002141424	0.99896849	0.000637384
0.00216407	0.99895224	0.000654723
0.002187178	0.99894113	0.000665381
0.002210948	0.99892058	0.00067732
0.002234938	0.99890588	0.000704296
0.002259661	0.99888901	0.000714148
0.002284896	0.99889118	0.000754175
0.002310522	0.99890489	0.000734229
0.002337101	0.99879082	0.000694748
0.002364022	0.9987871	0.00082269
0.002391536	0.9987692	0.000840873
0.002420052	0.99875644	0.00082378
0.002447667	0.99870739	0.000892577
0.002475931	0.99871961	0.000941723
0.00250493	0.99871671	0.000956235
0.002534603	0.99868944	0.00098292
0.002564916	0.99866978	0.001025231
0.002596014	0.99864967	0.001072812
0.002627679	0.99865577	0.001103582
0.002660458	0.99863626	0.001162905
0.00269381	0.99868122	0.001103525
0.002727916	0.99861875	0.001150868
0.00276315	0.99860444	0.001209283
0.002799121	0.99859145	0.001247122
0.002836327	0.99857204	0.001280908
0.002874322	0.99855725	0.001322728
0.002913317	0.99853777	0.001359568
0.002953536	0.99852055	0.001409527
0.002994691	0.99851528	0.001451299
0.003037119	0.99852328	0.001483358
0.003080779	0.99849342	0.001563921
0.00312577	0.99841915	0.001627677
0.003171847	0.99843281	0.001622134
0.003219469	0.99841644	0.00167075
0.00326864	0.99840171	0.001721208
0.003318992	0.99836777	0.001762828
0.003346013	0.99834946	0.001828456
0.003350191	0.99835033	0.001828924
0.003352946	0.99834999	0.001836178
0.003356887	0.99835144	0.001839332
0.003360191	0.99835142	0.001847084
0.003363747	0.99835195	0.001852315
0.003367629	0.99835318	0.001859388
0.003370696	0.99835485	0.001865488
0.00337483	0.99835529	0.001870337
0.0033776	0.99835676	0.001875591
0.003381853	0.99835959	0.001879734
0.003384921	0.99836276	0.00188546
0.003388625	0.99836559	0.001890845
0.003392197	0.99836751	0.001893844
0.003396005	0.99837284	0.001898017
0.003399103	0.99837428	0.001899676
0.003402689	0.99837607	0.001898974
0.003406913	0.99837712	0.001899944
0.003410189	0.99837805	0.001902636
0.003414146	0.99837796	0.001905451
0.003417333	0.99837943	0.001906339
0.003420861	0.99837909	0.001907863
0.003424641	0.99837867	0.001905918
0.003428347	0.99837658	0.00190961
0.003432379	0.99837512	0.001912414
0.003435936	0.99837433	0.001915467
0.003439094	0.99837348	0.001918805
0.003442949	0.9983733	0.001920732
0.0034467	0.99837288	0.001923559
0.003450747	0.99837278	0.001927512
0.003454261	0.99837299	0.00193068
0.003457627	0.99837347	0.001932422
0.003461215	0.99837345	0.001932584
0.003465426	0.9983731	0.001933825
0.003468955	0.99837147	0.001934599
0.003473018	0.99836916	0.001936899
0.00347634	0.99836787	0.001937834
0.00348024	0.99836511	0.001937808
0.003484422	0.99836178	0.001942561
0.003487581	0.99836141	0.001943537
0.003501235	0.99834739	0.001951937
0.003564361	0.99831916	0.002020397
0.003629569	0.99828508	0.002086025
0.003697112	0.99824553	0.002165043
0.003767337	0.99823306	0.002264997
0.003840367	0.99822629	0.002332498
0.003915999	0.99816635	0.002422011
0.00399522	0.99809548	0.00255165
0.004077217	0.99813442	0.002787499
0.004162845	0.99816647	0.0028814
0.004251933	0.99837179	0.00301149
0.004300844	0.99796277	0.002607703
0.004306501	0.99781802	0.002696157
0.00431268	0.99771104	0.002830863
0.004318517	0.99765822	0.002973318
0.004324324	0.99763192	0.003097534
0.004329714	0.99758876	0.003228968
0.004335596	0.99766086	0.003450506
0.004341434	0.9977757	0.00340068
0.004347302	0.99746683	0.003500293
0.00435314	0.99746038	0.004092737
0.004359039	0.99801538	0.004660738
0.004365146	0.99912529	0.004559904
0.004372788	0.9988524	0.003422586
0.004378811	0.99897232	0.003417856
0.004384983	0.99874461	0.003280902
0.004390508	0.99867626	0.00326723
0.004396414	0.9986532	0.003253089
0.004402768	0.99860576	0.003277191
0.004408775	0.99859982	0.003279825
0.0044143	0.99859845	0.00325769
0.004420339	0.99861075	0.003274744
0.004426677	0.99863477	0.00325998
0.004432601	0.99865834	0.00322533
0.004438392	0.99864758	0.003167226
0.004444498	0.99861851	0.003129795
0.004450936	0.99857441	0.003109677
0.004457025	0.99853483	0.003115312
0.00446265	0.99849999	0.003114611
0.004468873	0.99847945	0.003133961
0.004475261	0.99845211	0.003145818
0.0044816	0.99843188	0.003172707
0.004487392	0.99841616	0.003190216
0.004493515	0.99840286	0.003216825
0.004499804	0.99839249	0.003252459
0.004506342	0.9983966	0.00329087
0.004512615	0.99840917	0.003322231
0.004518639	0.99842457	0.003340854
0.004524696	0.99843962	0.003359378
0.004531052	0.99845575	0.003373057
0.00453764	0.99846118	0.003381766
0.004544063	0.99845996	0.003395619
0.004550369	0.99845486	0.003425692
0.004556393	0.99845477	0.003466702
0.004562716	0.99847835	0.003523725
0.004569239	0.99852821	0.003577258
0.004575778	0.99859484	0.003617947
0.004582416	0.99868129	0.003638501
0.004588956	0.99878098	0.003636667
0.004595329	0.99887808	0.003593795
0.004601569	0.99895198	0.003506167
0.004608026	0.99897888	0.003407766
0.004614499	0.99896679	0.003325017
0.004621154	0.99893852	0.003273074
0.004710605	0.99869745	0.003159236
0.004822021	0.99861486	0.003240954
0.004938972	0.99860195	0.003336863
0.005061661	0.998612	0.003424512
0.005190921	0.99862619	0.003524083
0.005326791	0.99867832	0.003624044
0.005469674	0.99872134	0.003688851
0.005621055	0.99875979	0.003797659
0.005780674	0.99886394	0.003903945
0.005949652	0.99900253	0.003937885
0.006128847	0.99913117	0.003947444
0.006213701	0.9991893	0.00395031
0.006306774	0.9992545	0.003925325
0.00640228	0.99931551	0.003936636
0.006501372	0.99943186	0.003914456
0.006603013	0.99954105	0.003801726
0.006708377	0.99955558	0.00364443
0.006816828	0.99953683	0.003551885
0.006928882	0.99954368	0.003492584
0.007044512	0.99958274	0.003420155
0.007164353	0.99967525	0.003289195
0.007288354	0.9996902	0.003012283
0.007416465	0.99951978	0.002758329
0.007549672	0.99933438	0.002721711
0.007687196	0.99935043	0.002694369
0.007829973	0.99941426	0.002489148
0.007977953	0.9993347	0.002110764
0.008132188	0.99914312	0.001743977
0.008292228	0.99876206	0.001355287
0.008458796	0.99814558	0.001097607
0.008632008	0.99766473	0.001386652
0.008653773	0.99767593	0.001401893
0.008676405	0.9976803	0.0014009
0.00869859	0.99767879	0.001394337
0.008720893	0.9976758	0.001380704
0.008744014	0.99766742	0.001355773
0.008766455	0.99765232	0.001325195
0.008789201	0.99762931	0.001293035
0.008812625	0.99759622	0.00125843
0.008835626	0.9975626	0.001226386
0.008858534	0.99752048	0.001188684
0.008881885	0.99746856	0.001156063
0.008905564	0.99740935	0.001125844
0.008929405	0.99735019	0.001106474
0.00895313	0.99728809	0.001091023
0.008976641	0.99722261	0.001078901
0.009000411	0.99715639	0.001077922
0.009024507	0.99709581	0.001088644
0.009048673	0.99704556	0.001108079
0.009073072	0.99700443	0.001126222
0.009097564	0.99697305	0.001161717
0.009122219	0.9970164	0.001203532
0.009146967	0.99705231	0.001061373
0.009172323	0.996913	0.001021403
0.009197304	0.99683859	0.001069179
0.009222048	0.99684683	0.001137515
0.009247425	0.9970024	0.001131621
0.009272707	0.99698378	0.00082688
0.00929862	0.99678602	0.000754338
0.009324298	0.99665954	0.000742965
0.009349882	0.99656006	0.000738762
0.009376097	0.99647283	0.000738877
0.009402311	0.99639198	0.000738613
0.009428383	0.99631505	0.000737646
0.009455204	0.99624104	0.000739083
0.009481438	0.9961679	0.000741655
0.009508491	0.99609827	0.000745335
0.009535051	0.99603093	0.000750218
0.009562288	0.99596456	0.000753456
0.009589408	0.99589898	0.000756959
0.009616737	0.99583486	0.000760968
0.00964458	0.99576966	0.000765896
0.009671931	0.9957066	0.000770114
0.009699725	0.99564563	0.000776574
0.009727916	0.99558503	0.000780107
0.009755989	0.9955233	0.000782622
0.009784247	0.99546277	0.00078614
0.009812669	0.99540174	0.000789034
0.009841369	0.9953398	0.000790936
0.009870233	0.9952771	0.000794212
0.009899212	0.99521442	0.000796725
0.009928331	0.99515103	0.000799966
0.009957705	0.99508761	0.00080309
0.009987102	0.99502292	0.000807054
0.010157604	0.9946712	0.000843526
0.010408433	0.99416203	0.000880332
0.010672027	0.9936269	0.000919033
0.010949422	0.99306044	0.000975654
0.011241582	0.99247133	0.001007254
0.011549845	0.99185528	0.001045751
0.011875075	0.99113334	0.001097045
0.01221949	0.99040237	0.001173236
0.012584603	0.98957068	0.001207527
0.012971665	0.98870189	0.00126961
0.01338409	0.98772996	0.001307265
0.013823141	0.98663969	0.001342289
0.014291752	0.98538361	0.001387407
0.014793431	0.98398748	0.001433165
0.015331603	0.98235724	0.001503574
0.015910382	0.98054283	0.001600151
0.016534955	0.97838355	0.001740957
0.017210127	0.97590021	0.001966633
0.017942814	0.97302855	0.002267094
0.018740957	0.96953927	0.002700854
0.019372282	0.96676594	0.003310144
0.01983753	0.9645799	0.003617512
0.020325424	0.96206228	0.004039714
0.020837711	0.95929402	0.004673488
0.021376419	0.95633078	0.005462563
0.021944027	0.95306289	0.00632759
0.022542529	0.94930053	0.007394932
0.023174667	0.94512119	0.008936697
0.023843484	0.9406303	0.010870909
0.024551204	0.93572936	0.013365551
0.025302968	0.93057148	0.016252659
0.026102097	0.92483891	0.019768389
0.026953245	0.91868722	0.023952012
0.027861567	0.91176882	0.028742087
0.028833647	0.90354264	0.034991145
0.029875685	0.89488587	0.04316012
0.030994898	0.88492676	0.05509683
0.031288376	0.88305386	0.058607554
0.031588615	0.88147996	0.060939069
0.031892779	0.87916898	0.064794052
0.0322037	0.87682983	0.068251468
0.032520873	0.87454228	0.071941388
0.032843385	0.87251924	0.076721709
0.033171638	0.87090447	0.08080024
0.033508061	0.8695187	0.085136919
0.033852552	0.86768206	0.089340414
0.034217461	0.86574995	0.093794101
0.034563704	0.86387616	0.098385605
0.034924692	0.86203641	0.103267522
0.03529779	0.85920981	0.108074366
0.035679655	0.85857676	0.114535419
0.036068766	0.85621479	0.119401005
0.036464819	0.85383383	0.125011181
0.036873881	0.85125911	0.131322826
0.037288969	0.84818305	0.138494371
0.037713521	0.84447923	0.146711129
0.038148444	0.84094495	0.156047626
0.038594647	0.83772536	0.166993315
0.039049295	0.83511038	0.179954209
0.039518351	0.83418575	0.195322954
0.03999524	0.83545907	0.21251026
0.04048461	0.83986312	0.230403181
0.040986762	0.84767815	0.248293715
0.041501287	0.85840751	0.264733849
0.042027981	0.87105512	0.278984267
0.042569568	0.88534161	0.291816537
0.04312453	0.89978987	0.303642785
0.043694982	0.91545815	0.31526001
0.044280823	0.9335861	0.325952776
0.044879723	0.95439105	0.331634922
0.045498547	0.97694577	0.342930333
0.046133857	1.0054013	0.345695729
0.046787467	1.033186	0.340561324
0.04745715	1.0579489	0.330642761
0.048149969	1.0777497	0.316554268
0.048859964	1.0932168	0.300291405
0.049593489	1.102925	0.28482154
0.050349426	1.1087295	0.272050332
0.051126964	1.1160888	0.262427075
0.051930539	1.1239072	0.253700157
0.052759033	1.1309565	0.244233048
0.053614257	1.1413573	0.236633116
0.05449772	1.1548087	0.224953616
0.055412239	1.1643182	0.207203601
0.056357002	1.1684583	0.190038751
0.057333415	1.1800418	0.174720384
0.058344797	1.1840394	0.14938194
0.059392761	1.1779648	0.12637438
0.060480115	1.1762502	0.115623143
0.061607466	1.1803948	0.078486802
0.062776015	1.1607958	0.037009531
0.063991102	1.1198859	0.029997077
0.065254128	1.0969291	0.029393776
0.06656842	1.0777109	0.028980514
0.067937293	1.0606158	0.029760757
0.06936226	1.0449179	0.031561401
0.070848759	1.0306105	0.034503685
0.072399111	1.0187673	0.038076985
0.077490601	0.97887321	0.043281725
0.08550646	0.92303579	0.066216438
0.095372173	0.86293329	0.134891003
0.123984682	0.76307618	0.207596441
0.167659483	0.58108356	0.62
0.180797121	0.64928601	0.772759102
0.189105802	0.71129704	0.830798624
0.197796315	0.78092258	0.866381185
0.206640819	0.84318765	0.871339798
