Material: main / Zr / Palm
Optical constants. K. J. Palm, J. B. Murray, T. C. Narayan, J. N. Munday. Dynamic optical properties of metal hydrides, ACS Photonics 5, 4677-4686 (2018)(Numerical data kindly provided by Kevin Palm)
Comments: Zirconium, Room temperature, 200 nm thin film, electron beam evaporated, vacuum annealed 2 hr 350 Â°C.
wavelength (um)	n	k
0.226076263	2.031278	1.35511
0.229268463	2.097403	1.361175
0.232460739	2.136108	1.34168
0.235653107	2.149715	1.316365
0.238845535	2.145204	1.297827
0.24203801	2.134029	1.292769
0.24523056	2.126444	1.297074
0.248423187	2.124569	1.305033
0.251615875	2.12795	1.31296
0.254808594	2.134975	1.318452
0.258001404	2.143071	1.320511
0.261194214	2.150276	1.320354
0.264387085	2.156262	1.31925
0.267580017	2.161168	1.318034
0.27077298	2.165357	1.317275
0.273965973	2.169389	1.317309
0.277158997	2.174003	1.31797
0.280352081	2.179428	1.318655
0.283545135	2.185537	1.318933
0.286738251	2.192091	1.318514
0.289931396	2.198776	1.317211
0.293124573	2.205207	1.314934
0.296317719	2.210863	1.311773
0.299510895	2.215373	1.308238
0.302704071	2.218762	1.304816
0.305897278	2.221184	1.301861
0.309090485	2.222859	1.299634
0.312283661	2.224055	1.298321
0.315476868	2.225093	1.298038
0.318670044	2.226372	1.298814
0.32186322	2.228358	1.300395
0.325056396	2.231197	1.302327
0.328249542	2.234844	1.304268
0.331442688	2.239184	1.305955
0.334635773	2.244061	1.30719
0.337828857	2.249289	1.307824
0.341021912	2.254659	1.307755
0.344214935	2.259933	1.306925
0.347407928	2.264815	1.305339
0.350600891	2.269005	1.303208
0.353793793	2.272418	1.30081
0.356986664	2.275056	1.298356
0.360179504	2.276962	1.296017
0.363372284	2.278197	1.293929
0.366565002	2.27884	1.292204
0.36975766	2.278982	1.290931
0.372950287	2.278723	1.290181
0.376142853	2.278176	1.290003
0.379335327	2.277467	1.290429
0.382527771	2.276755	1.291439
0.385720093	2.276143	1.292931
0.388912384	2.275673	1.294818
0.392104553	2.275364	1.297029
0.395296692	2.275222	1.299502
0.398488708	2.275246	1.302187
0.401680695	2.275428	1.305041
0.404872559	2.275756	1.308027
0.408064331	2.276212	1.311112
0.411256012	2.276777	1.314271
0.414447571	2.277428	1.317482
0.417639069	2.27814	1.320729
0.420830414	2.278877	1.324003
0.424021729	2.279602	1.327313
0.427212891	2.280295	1.330688
0.4304039	2.280956	1.33415
0.433594818	2.281585	1.337716
0.436785645	2.282189	1.341398
0.439976379	2.282775	1.345208
0.443166931	2.283351	1.349152
0.446357361	2.283929	1.353238
0.449547668	2.284518	1.35747
0.452737854	2.285128	1.361849
0.455927887	2.285772	1.366378
0.459117767	2.286461	1.371056
0.462307556	2.287208	1.375883
0.465497162	2.288024	1.380855
0.468686615	2.288923	1.385968
0.471875916	2.289921	1.391216
0.475065094	2.291033	1.396585
0.478254089	2.292268	1.402055
0.481442932	2.293626	1.407612
0.484631592	2.295109	1.413242
0.487820129	2.296716	1.418932
0.491008453	2.298444	1.424672
0.494196625	2.300291	1.430451
0.497384613	2.302254	1.43626
0.500572418	2.304329	1.442092
0.503760071	2.306513	1.447939
0.50694751	2.308802	1.453794
0.510134766	2.311191	1.459652
0.513321838	2.313675	1.465506
0.516508667	2.316252	1.471352
0.519695435	2.318915	1.477186
0.522881897	2.321661	1.483003
0.526068176	2.324484	1.4888
0.529254211	2.327379	1.494573
0.532440063	2.330343	1.500321
0.535625732	2.333369	1.506042
0.538811157	2.336452	1.511734
0.541996399	2.339589	1.517398
0.545181396	2.342775	1.523034
0.54836615	2.346008	1.528643
0.55155072	2.349286	1.534225
0.554735046	2.352607	1.539778
0.557919128	2.355968	1.545304
0.561102966	2.359367	1.550802
0.564286621	2.362803	1.556273
0.567470032	2.366273	1.561714
0.570653137	2.369776	1.567128
0.57383606	2.373311	1.572513
0.577018677	2.376874	1.577869
0.58020105	2.380467	1.583196
0.583383179	2.384085	1.588495
0.586565063	2.387729	1.593764
0.589746704	2.391397	1.599004
0.592927979	2.395087	1.604216
0.59610907	2.398798	1.609398
0.599289917	2.402528	1.614551
0.602470398	2.406277	1.619674
0.605650696	2.410044	1.624769
0.608830688	2.413826	1.629835
0.612010376	2.417623	1.634871
0.615189758	2.421434	1.639878
0.618368896	2.425257	1.644857
0.621547729	2.429092	1.649806
0.624726257	2.432937	1.654728
0.62790448	2.436791	1.659621
0.631082458	2.440653	1.664485
0.634260132	2.444523	1.669323
0.637437378	2.448399	1.674132
0.640614441	2.452281	1.678915
0.643791138	2.456167	1.68367
0.64696759	2.460058	1.688399
0.650143677	2.463952	1.693101
0.653319458	2.467848	1.697777
0.656494873	2.471746	1.702427
0.659669983	2.475644	1.707051
0.662844788	2.479543	1.71165
0.666019165	2.483441	1.716224
0.669193298	2.487339	1.720773
0.672367065	2.491233	1.725297
0.675540527	2.495126	1.729796
0.678713623	2.499014	1.734272
0.681886353	2.502899	1.738724
0.685058777	2.506779	1.743153
0.688230835	2.510653	1.747559
0.691402527	2.514522	1.751942
0.694573853	2.518383	1.756302
0.697744873	2.522237	1.760641
0.700915466	2.526083	1.764958
0.704085693	2.52992	1.769254
0.707255554	2.533747	1.773529
0.71042511	2.537564	1.777784
0.713594177	2.541369	1.782019
0.716762939	2.545163	1.786234
0.719931335	2.548944	1.790431
0.723099304	2.552711	1.794609
0.726266907	2.556463	1.79877
0.729434143	2.5602	1.802914
0.732600952	2.563921	1.807041
0.735767334	2.567623	1.811153
0.73893335	2.571306	1.815251
0.742098999	2.574967	1.819339
0.745264221	2.578608	1.823418
0.748429016	2.582228	1.827491
0.751593384	2.585829	1.831559
0.754757385	2.589411	1.835625
0.757920959	2.592975	1.839689
0.761084106	2.596522	1.843754
0.764246826	2.600052	1.847819
0.767409119	2.603567	1.851886
0.770570984	2.607069	1.855957
0.773732483	2.610556	1.860031
0.776893433	2.614032	1.864109
0.780054077	2.617496	1.868193
0.783214172	2.62095	1.872281
0.786373901	2.624395	1.876376
0.789533081	2.627831	1.880477
0.792691956	2.63126	1.884585
0.795850281	2.634683	1.888699
0.799008179	2.6381	1.89282
0.802165649	2.641513	1.896949
0.805322632	2.644922	1.901084
0.808479126	2.648328	1.905227
0.811635193	2.651731	1.909377
0.814790771	2.655134	1.913535
0.817945923	2.658537	1.917699
0.821100586	2.66194	1.921871
0.8242547	2.665344	1.926049
0.827408386	2.668749	1.930235
0.830561646	2.672158	1.934427
0.833714355	2.675569	1.938625
0.836866577	2.678985	1.942829
0.840018372	2.682405	1.947039
0.843169617	2.68583	1.951255
0.846320313	2.689261	1.955476
0.849470581	2.692698	1.959702
0.852620422	2.696142	1.963933
0.855769653	2.699594	1.968168
0.858918335	2.703054	1.972407
0.862066589	2.706522	1.97665
0.865214355	2.71	1.980896
0.868361511	2.713486	1.985144
0.871508179	2.716983	1.989396
0.874654419	2.72049	1.993649
0.87780011	2.724009	1.997904
0.88094519	2.727538	2.00216
0.884089722	2.73108	2.006417
0.887233765	2.734633	2.010674
0.890377319	2.7382	2.014931
0.893520325	2.741779	2.019187
0.896662781	2.745373	2.023442
0.899804688	2.74898	2.027695
0.902945984	2.752602	2.031946
0.906086792	2.756239	2.036194
0.909227051	2.759892	2.040438
0.912366699	2.763561	2.044676
0.915505859	2.767247	2.048909
0.918644409	2.77095	2.053133
0.92178241	2.774668	2.057349
0.924919922	2.778402	2.061556
0.928056763	2.782152	2.065752
0.931193054	2.785917	2.069937
0.934328796	2.789696	2.074111
0.937463867	2.79349	2.078272
0.94059845	2.797298	2.082419
0.943732422	2.80112	2.086554
0.946865845	2.804954	2.090673
0.949998657	2.808802	2.094779
0.953130859	2.812661	2.098868
0.956262512	2.816533	2.102943
0.959393555	2.820415	2.107001
0.962523926	2.824309	2.111042
0.965653809	2.828212	2.115068
0.96878302	2.832126	2.119076
0.971911621	2.83605	2.123066
0.975039551	2.839982	2.127039
0.978166992	2.843922	2.130994
0.981293762	2.847871	2.134931
0.9844198	2.851827	2.138849
0.98754541	2.855791	2.142749
0.990670288	2.859761	2.14663
0.993794556	2.863737	2.150492
0.996918152	2.86772	2.154336
1.011449524	2.886319	2.171972
1.018225952	2.895027	2.180058
1.025004272	2.903752	2.188057
1.031784424	2.912492	2.195969
1.03856665	2.921241	2.203794
1.045350586	2.929997	2.211533
1.052136475	2.938756	2.219184
1.058924194	2.947513	2.22675
1.065713867	2.956265	2.23423
1.072505493	2.96501	2.241626
1.07929895	2.973743	2.248937
1.08609436	2.982461	2.256166
1.092891602	2.991161	2.263314
1.099690674	2.999839	2.270381
1.106491821	3.008492	2.27737
1.113294678	3.017118	2.284281
1.120099609	3.025713	2.291117
1.126906372	3.034273	2.297879
1.133714966	3.042797	2.304569
1.140525513	3.051279	2.31119
1.147337891	3.059718	2.317744
1.154152222	3.06811	2.324232
1.160968506	3.07645	2.330657
1.167786499	3.084735	2.337024
1.174606567	3.092961	2.343335
1.181428467	3.101121	2.349595
1.188252197	3.109209	2.355812
1.195077881	3.117225	2.361999
1.201905518	3.12517	2.368164
1.208734863	3.133047	2.374316
1.215566162	3.14086	2.380461
1.222399536	3.148614	2.386604
1.229234619	3.156312	2.39275
1.236071655	3.163958	2.398904
1.242910522	3.171558	2.405069
1.249751343	3.179115	2.411247
1.256593994	3.186634	2.417442
1.263438721	3.194119	2.423655
1.270285156	3.201575	2.429888
1.277133545	3.209006	2.436143
1.283983765	3.216415	2.44242
1.290835938	3.223808	2.44872
1.297689941	3.231187	2.455043
1.304545898	3.238556	2.461391
1.311403687	3.245919	2.467762
1.318263428	3.25328	2.474157
1.325125122	3.260642	2.480576
1.331988525	3.268008	2.487017
1.338853882	3.275382	2.493481
1.345721191	3.282765	2.499966
1.352590454	3.290162	2.506472
1.359461426	3.297575	2.512998
1.366334351	3.305007	2.519542
1.373209229	3.312459	2.526104
1.380085938	3.319936	2.532683
1.3869646	3.327438	2.539276
1.393844971	3.334969	2.545883
1.400727417	3.34253	2.552503
1.407611694	3.350123	2.559134
1.414497803	3.357751	2.565773
1.421385864	3.365414	2.572421
1.428275757	3.373116	2.579076
1.435167725	3.380858	2.585735
1.442061279	3.388641	2.592397
1.448956909	3.396466	2.599061
1.45585437	3.404336	2.605726
1.462753784	3.412252	2.612388
1.469655029	3.420215	2.619047
1.476558228	3.428227	2.625702
1.483463135	3.436288	2.63235
1.490370117	3.4444	2.63899
1.497278931	3.452564	2.64562
1.504189697	3.460781	2.652238
1.511102173	3.469053	2.658843
1.518016602	3.47738	2.665434
1.524932983	3.485763	2.672008
1.531851196	3.494203	2.678563
1.53877124	3.502702	2.685099
1.545693237	3.51126	2.691613
1.552617188	3.519879	2.698103
1.559542969	3.528558	2.704569
1.566470581	3.5373	2.711009
1.573400146	3.546104	2.717419
1.580331543	3.554973	2.7238
1.587264893	3.563907	2.730149
1.594199951	3.572907	2.736464
1.601137085	3.581974	2.742744
1.60807605	3.591109	2.748986
1.615016846	3.600313	2.75519
1.621959595	3.609588	2.761353
1.628904175	3.618935	2.767473
1.635850708	3.628355	2.773548
1.642799072	3.63785	2.779576
1.649749268	3.647421	2.785555
1.656701416	3.657071	2.791483
1.663655518	3.666801	2.797357
1.670611328	3.676614	2.803174
1.677569092	3.686513	2.808931
1.684528687	3.696501	2.814625
