Material: main / Zr / Windt
Optical constants. D. L. Windt, W. C. Cash, M. Scott, P. Arendt, B. Newnam, R. F. Fisher, A. B. Swartzlander. Optical constants for thin films of Ti, Zr, Nb, Mo, Ru, Rh, Pd, Ag, Hf, Ta, W, Re, Ir, Os, Pt, and Au from 24 Å to 1216 Å, Appl. Opt. 27, 246-278 (1988)
wavelength (um)	n	k
0.00236	0.99783	0.00117
0.00316	0.99781	0.00135
0.00447	0.99536	0.00498
0.00676	0.99220	0.00269
0.01140	0.9694	0.00625
0.01355	0.9550	0.0131
0.01714	0.9188	0.0220
0.02430	0.808	0.0987
0.02563	0.790	0.119
0.03038	0.757	0.324
0.03270	0.868	0.320
0.03568	0.949	0.373
0.03793	0.963	0.318
0.04059	0.900	0.232
0.04478	0.866	0.314
0.04607	0.829	0.321
0.04895	0.844	0.347
0.05391	0.825	0.337
0.05843	0.838	0.362
0.06163	0.826	0.330
0.06714	0.768	0.332
0.07185	0.807	0.440
0.07359	0.789	0.492
0.07437	0.817	0.533
0.08345	0.817	0.673
0.08780	0.828	0.759
0.09198	0.810	0.858
0.09321	0.804	0.848
0.09888	0.814	0.905
0.10258	0.895	0.990
0.10482	0.952	1.10
0.10667	0.850	1.08
0.10857	0.907	1.11
0.11350	1.150	1.27
0.12007	1.140	1.24
0.12157	1.280	1.31
