Material: main / In / Golovashkin-4.2K
Optical constants. A. I. Golovashkin, I. S. Levchenko, G. P. Motulevich, A .A. Shubin. The optical properties of indium, Sov. Phys. JETP 24, 1093-1100 (1967)
Comments: 4.2 K (-268.95 Â°C)
Specs: {"temperature": "4.2 K"}
wavelength (um)	n	k
0.55	0.695	4.70
0.60	0.77	5.08
0.65	0.835	5.50
0.70	0.99	6.00
0.72	1.09	6.20
0.74	1.20	6.40
0.75	1.26	6.45
0.76	1.33	6.50
0.80	1.59	6.65
0.82	1.65	6.68
0.85	1.71	6.72
0.90	1.73	6.85
0.95	1.65	7.00
1.00	1.49	7.25
1.05	1.41	7.60
1.10	1.35	8.00
1.15	1.31	8.42
1.20	1.28	8.88
1.25	1.28	9.24
1.30	1.30	9.60
1.35	1.32	9.95
1.40	1.35	10.3
1.45	1.36	10.6
1.50	1.39	10.9
1.55	1.45	11.45
1.60	1.48	11.9
1.65	1.52	12.2
1.70	1.56	12.6
1.75	1.61	12.9
1.80	1.65	13.2
1.85	1.70	13.55
1.90	1.75	13.8
1.93	1.78	14.2
2.00	1.84	14.6
2.05	1.88	14.8
2.10	1.92	15.0
2.15	1.96	15.3
2.20	1.98	15.6
2.25	1.99	16.0
2.30	2.00	16.2
2.35	2.00	16.5
2.40	1.99	16.8
2.45	1.97	17.2
2.50	1.95	17.5
2.55	1.93	17.8
2.60	1.92	18.25
3.0	1.90	20.9
3.5	2.05	23.9
4	2.3	26.7
5	3.1	32.7
6	4.2	38.7
8	7.5	50.6
10	13.5	62.3
