Material: main / In / Golovashkin-295K
Optical constants. A. I. Golovashkin, I. S. Levchenko, G. P. Motulevich, A .A. Shubin. The optical properties of indium, Sov. Phys. JETP 24, 1093-1100 (1967)
Comments: 295 K (21.85 Â°C)
Specs: {"temperature": "295 K"}
wavelength (um)	n	k
0.55	0.70	4.70
0.60	0.795	5.02
0.65	0.90	5.42
0.70	1.01	5.83
0.72	1.07	6.00
0.74	1.13	6.18
0.75	1.17	6.26
0.76	1.19	6.31
0.80	1.32	6.60
0.85	1.45	6.78
0.90	1.59	7.18
0.95	1.72	7.44
1.0	1.81	7.77
1.1	1.84	8.38
1.2	1.87	9.00
1.3	1.95	9.70
1.4	2.06	10.35
1.5	2.19	11.0
1.6	2.33	11.8
1.7	2.49	12.5
1.8	2.64	13.1
1.9	2.80	13.8
2.0	2.97	14.5
2.1	3.13	15.0
2.2	3.30	15.6
2.4	3.65	16.9
2.5	3.81	17.6
2.6	4.00	18.3
3.0	4.70	20.9
3.5	6.00	23.9
4	7.27	26.7
5	9.77	32.2
6	12.4	37.2
8	18.4	45.3
10	24.8	51.9
