Material: main / In / Mathewson-298K
Optical constants. A. G. Mathewson and H. P. Myers. Absolute values of the optical constants of some pure metals, Phys. Scr. 4, 291-292 (1971)
Comments: 298 K (24.85 Â°C)
Specs: {"n_absolute": true, "wavelength_vacuum": true, "temperature": "298 K"}
wavelength (um)	n	k
0.34440	0.47332	3.27476
0.34925	0.49866	3.30888
0.35424	0.50669	3.35511
0.35937	0.52896	3.40291
0.36466	0.53878	3.43370
0.37010	0.56026	3.48050
0.37571	0.56970	3.51063
0.38149	0.57238	3.58157
0.38745	0.58851	3.65327
0.39360	0.60855	3.69734
0.39995	0.63038	3.72792
0.40651	0.64527	3.79689
0.41328	0.65983	3.86463
0.42029	0.67409	3.93121
0.42753	0.68807	3.99668
0.43503	0.71373	4.06318
0.44280	0.73874	4.12865
0.45085	0.76315	4.19314
0.45920	0.78700	4.25668
0.46786	0.82149	4.32144
0.47686	0.84413	4.38321
0.48621	0.87714	4.44628
0.49594	0.90938	4.50855
0.50606	0.94091	4.57004
0.51660	0.97131	4.68438
0.52759	1.00133	4.74370
0.53906	1.03008	4.85397
0.55104	1.05808	4.96181
0.56356	1.09481	5.06938
0.57667	1.13140	5.12641
0.59040	1.16620	5.23068
0.60480	1.19016	5.37741
0.61992	1.23314	5.43329
0.63582	1.26422	5.57658
0.65255	1.30407	5.67456
0.67018	1.34164	5.81378
0.68880	1.39555	5.91165
0.70848	1.44648	6.04916
0.72932	1.49588	6.18366
0.75142	1.57370	6.32270
0.77490	1.66134	6.50077
0.79990	1.77582	6.64481
0.82656	1.86983	6.81882
0.85506	1.97631	6.95743
0.88560	2.05685	7.12254
0.91840	2.13143	7.24865
0.95372	2.16086	7.42760
0.99187	2.18402	7.60065
1.03320	2.19287	7.79799
1.07812	2.19247	8.05028
1.12713	2.19219	8.32500
1.18080	2.21278	8.65427
1.23984	2.22061	9.05158
1.30510	2.25471	9.49124
1.37760	2.30088	10.03962
1.45864	2.34655	10.65393
1.54980	2.40614	11.30440
1.65312	2.51787	12.01414
1.77120	2.69499	12.89430
