Material: main / Mn / Johnson
Optical constants. P. B. Johnson and R. W. Christy. Optical constants of transition metals: Ti, V, Cr, Mn, Fe, Co, Ni, and Pd, Phys. Rev. B 9, 5056-5070 (1974)
Comments: Room temperature
wavelength (um)	n	k
0.188	1.48	1.47
0.192	1.55	1.50
0.195	1.59	1.52
0.199	1.62	1.55
0.203	1.63	1.58
0.207	1.67	1.61
0.212	1.70	1.64
0.216	1.72	1.67
0.221	1.73	1.70
0.226	1.74	1.73
0.231	1.78	1.76
0.237	1.81	1.79
0.243	1.82	1.82
0.249	1.82	1.86
0.255	1.83	1.91
0.262	1.84	1.94
0.269	1.85	1.99
0.276	1.86	2.03
0.284	1.85	2.08
0.292	1.85	2.14
0.301	1.86	2.19
0.311	1.86	2.25
0.320	1.86	2.32
0.332	1.86	2.38
0.342	1.87	2.45
0.354	1.89	2.51
0.368	1.89	2.59
0.381	1.92	2.67
0.397	1.96	2.74
0.413	2.00	2.82
0.431	2.06	2.90
0.451	2.11	2.98
0.471	2.19	3.06
0.496	2.25	3.14
0.521	2.32	3.23
0.549	2.39	3.33
0.582	2.47	3.43
0.617	2.51	3.54
0.659	2.56	3.65
0.704	2.62	3.78
0.756	2.70	3.91
0.821	2.83	4.03
0.892	2.97	4.18
0.984	3.10	4.35
1.088	3.30	4.53
1.216	3.48	4.74
1.393	3.65	5.02
1.610	3.78	5.41
1.937	3.89	5.95
