Material: main / ZnS / Ozaki
Optical constants. S. Ozaki and S. Adachi. Optical constants of cubic ZnS, Jpn. J. Appl. Phys. 32, 5008-5013 (1993)[Calculation script (Python)]
Comments: Fit of author's experimental data to a simplified model of the interband transitions (MDF). Room Temperature.
wavelength (um)	n	k
2.2140e-01	3.0789e+00	1.6840e+00
2.2210e-01	3.0990e+00	1.6457e+00
2.2280e-01	3.1168e+00	1.6072e+00
2.2351e-01	3.1321e+00	1.5688e+00
2.2422e-01	3.1453e+00	1.5305e+00
2.2494e-01	3.1563e+00	1.4926e+00
2.2566e-01	3.1652e+00	1.4553e+00
2.2639e-01	3.1722e+00	1.4186e+00
2.2712e-01	3.1775e+00	1.3827e+00
2.2786e-01	3.1811e+00	1.3476e+00
2.2860e-01	3.1832e+00	1.3135e+00
2.2935e-01	3.1840e+00	1.2803e+00
2.3010e-01	3.1835e+00	1.2482e+00
2.3085e-01	3.1819e+00	1.2171e+00
2.3161e-01	3.1792e+00	1.1871e+00
2.3238e-01	3.1757e+00	1.1582e+00
2.3315e-01	3.1714e+00	1.1303e+00
2.3392e-01	3.1663e+00	1.1035e+00
2.3470e-01	3.1607e+00	1.0777e+00
2.3549e-01	3.1546e+00	1.0530e+00
2.3628e-01	3.1480e+00	1.0292e+00
2.3708e-01	3.1410e+00	1.0064e+00
2.3788e-01	3.1337e+00	9.8459e-01
2.3869e-01	3.1262e+00	9.6366e-01
2.3950e-01	3.1185e+00	9.4359e-01
2.4032e-01	3.1106e+00	9.2436e-01
2.4114e-01	3.1026e+00	9.0594e-01
2.4197e-01	3.0945e+00	8.8828e-01
2.4281e-01	3.0864e+00	8.7136e-01
2.4365e-01	3.0782e+00	8.5514e-01
2.4450e-01	3.0701e+00	8.3958e-01
2.4535e-01	3.0620e+00	8.2466e-01
2.4621e-01	3.0540e+00	8.1035e-01
2.4708e-01	3.0460e+00	7.9661e-01
2.4795e-01	3.0382e+00	7.8341e-01
2.4883e-01	3.0304e+00	7.7073e-01
2.4971e-01	3.0227e+00	7.5854e-01
2.5060e-01	3.0152e+00	7.4681e-01
2.5150e-01	3.0078e+00	7.3552e-01
2.5240e-01	3.0006e+00	7.2464e-01
2.5331e-01	2.9935e+00	7.1415e-01
2.5422e-01	2.9866e+00	7.0403e-01
2.5515e-01	2.9798e+00	6.9427e-01
2.5608e-01	2.9732e+00	6.8482e-01
2.5701e-01	2.9667e+00	6.7569e-01
2.5796e-01	2.9604e+00	6.6685e-01
2.5891e-01	2.9543e+00	6.5828e-01
2.5986e-01	2.9483e+00	6.4997e-01
2.6083e-01	2.9425e+00	6.4190e-01
2.6180e-01	2.9369e+00	6.3405e-01
2.6278e-01	2.9314e+00	6.2641e-01
2.6376e-01	2.9261e+00	6.1897e-01
2.6476e-01	2.9210e+00	6.1171e-01
2.6576e-01	2.9160e+00	6.0462e-01
2.6676e-01	2.9112e+00	5.9769e-01
2.6778e-01	2.9065e+00	5.9090e-01
2.6880e-01	2.9020e+00	5.8425e-01
2.6984e-01	2.8977e+00	5.7771e-01
2.7088e-01	2.8934e+00	5.7129e-01
2.7192e-01	2.8894e+00	5.6497e-01
2.7298e-01	2.8855e+00	5.5875e-01
2.7404e-01	2.8817e+00	5.5260e-01
2.7512e-01	2.8780e+00	5.4652e-01
2.7620e-01	2.8745e+00	5.4051e-01
2.7729e-01	2.8711e+00	5.3455e-01
2.7838e-01	2.8678e+00	5.2864e-01
2.7949e-01	2.8647e+00	5.2276e-01
2.8061e-01	2.8616e+00	5.1691e-01
2.8173e-01	2.8587e+00	5.1108e-01
2.8286e-01	2.8559e+00	5.0527e-01
2.8401e-01	2.8531e+00	4.9945e-01
2.8516e-01	2.8504e+00	4.9364e-01
2.8632e-01	2.8479e+00	4.8781e-01
2.8749e-01	2.8453e+00	4.8196e-01
2.8867e-01	2.8429e+00	4.7609e-01
2.8986e-01	2.8405e+00	4.7019e-01
2.9106e-01	2.8381e+00	4.6425e-01
2.9227e-01	2.8358e+00	4.5827e-01
2.9349e-01	2.8335e+00	4.5223e-01
2.9472e-01	2.8312e+00	4.4614e-01
2.9596e-01	2.8288e+00	4.3999e-01
2.9721e-01	2.8265e+00	4.3378e-01
2.9848e-01	2.8240e+00	4.2750e-01
2.9975e-01	2.8215e+00	4.2116e-01
3.0103e-01	2.8189e+00	4.1475e-01
3.0233e-01	2.8162e+00	4.0828e-01
3.0363e-01	2.8133e+00	4.0177e-01
3.0495e-01	2.8101e+00	3.9523e-01
3.0628e-01	2.8067e+00	3.8867e-01
3.0762e-01	2.8030e+00	3.8215e-01
3.0897e-01	2.7988e+00	3.7570e-01
3.1033e-01	2.7942e+00	3.6941e-01
3.1171e-01	2.7890e+00	3.6339e-01
3.1310e-01	2.7831e+00	3.5779e-01
3.1450e-01	2.7765e+00	3.5285e-01
3.1591e-01	2.7691e+00	3.4892e-01
3.1734e-01	2.7608e+00	3.4647e-01
3.1878e-01	2.7518e+00	3.4620e-01
3.2023e-01	2.7426e+00	3.4898e-01
3.2169e-01	2.7344e+00	3.5579e-01
3.2317e-01	2.7292e+00	3.6712e-01
3.2466e-01	2.7299e+00	3.8218e-01
3.2617e-01	2.7389e+00	3.9810e-01
3.2769e-01	2.7562e+00	4.1059e-01
3.2923e-01	2.7789e+00	4.1693e-01
3.3077e-01	2.8052e+00	4.1757e-01
3.3234e-01	2.8364e+00	4.1121e-01
3.3392e-01	2.8707e+00	3.9204e-01
3.3551e-01	2.8990e+00	3.5695e-01
3.3712e-01	2.9122e+00	3.1259e-01
3.3874e-01	2.9097e+00	2.6933e-01
3.4038e-01	2.8969e+00	2.3301e-01
3.4204e-01	2.8794e+00	2.0451e-01
3.4371e-01	2.8603e+00	1.8262e-01
3.4540e-01	2.8414e+00	1.6575e-01
3.4711e-01	2.8233e+00	1.5255e-01
3.4883e-01	2.8064e+00	1.4204e-01
3.5057e-01	2.7906e+00	1.3350e-01
3.5232e-01	2.7760e+00	1.2644e-01
3.5410e-01	2.7623e+00	1.2050e-01
3.5589e-01	2.7494e+00	1.1542e-01
3.5770e-01	2.7374e+00	1.1102e-01
3.5953e-01	2.7261e+00	1.0715e-01
3.6138e-01	2.7154e+00	1.0372e-01
3.6325e-01	2.7052e+00	1.0064e-01
3.6513e-01	2.6956e+00	9.7847e-02
3.6704e-01	2.6864e+00	9.5301e-02
3.6897e-01	2.6776e+00	9.2962e-02
3.7091e-01	2.6692e+00	9.0799e-02
3.7288e-01	2.6611e+00	8.8786e-02
3.7487e-01	2.6533e+00	8.6905e-02
3.7688e-01	2.6458e+00	8.5139e-02
3.7891e-01	2.6386e+00	8.3473e-02
3.8096e-01	2.6316e+00	8.1897e-02
3.8304e-01	2.6248e+00	8.0401e-02
3.8514e-01	2.6182e+00	7.8977e-02
3.8726e-01	2.6119e+00	7.7617e-02
3.8940e-01	2.6057e+00	7.6315e-02
3.9157e-01	2.5997e+00	7.5067e-02
3.9376e-01	2.5938e+00	7.3868e-02
3.9598e-01	2.5881e+00	7.2714e-02
3.9822e-01	2.5825e+00	7.1600e-02
4.0049e-01	2.5771e+00	7.0525e-02
4.0279e-01	2.5718e+00	6.9486e-02
4.0511e-01	2.5666e+00	6.8480e-02
4.0746e-01	2.5616e+00	6.7504e-02
4.0983e-01	2.5566e+00	6.6558e-02
4.1223e-01	2.5518e+00	6.5639e-02
4.1467e-01	2.5470e+00	6.4745e-02
4.1713e-01	2.5424e+00	6.3876e-02
4.1962e-01	2.5378e+00	6.3030e-02
4.2214e-01	2.5334e+00	6.2205e-02
4.2468e-01	2.5290e+00	6.1401e-02
4.2727e-01	2.5247e+00	6.0616e-02
4.2988e-01	2.5205e+00	5.9850e-02
4.3252e-01	2.5164e+00	5.9102e-02
4.3520e-01	2.5123e+00	5.8371e-02
4.3791e-01	2.5083e+00	5.7657e-02
4.4066e-01	2.5044e+00	5.6957e-02
4.4344e-01	2.5005e+00	5.6273e-02
4.4625e-01	2.4967e+00	5.5604e-02
4.4910e-01	2.4930e+00	5.4948e-02
4.5199e-01	2.4893e+00	5.4305e-02
4.5491e-01	2.4857e+00	5.3675e-02
4.5788e-01	2.4821e+00	5.3058e-02
4.6088e-01	2.4786e+00	5.2453e-02
4.6392e-01	2.4752e+00	5.1859e-02
4.6700e-01	2.4718e+00	5.1276e-02
4.7012e-01	2.4685e+00	5.0704e-02
4.7329e-01	2.4652e+00	5.0143e-02
4.7649e-01	2.4619e+00	4.9592e-02
4.7975e-01	2.4587e+00	4.9050e-02
4.8304e-01	2.4556e+00	4.8518e-02
4.8638e-01	2.4525e+00	4.7996e-02
4.8977e-01	2.4494e+00	4.7482e-02
4.9321e-01	2.4464e+00	4.6977e-02
4.9669e-01	2.4434e+00	4.6481e-02
5.0023e-01	2.4405e+00	4.5992e-02
5.0381e-01	2.4376e+00	4.5512e-02
5.0745e-01	2.4347e+00	4.5040e-02
5.1114e-01	2.4319e+00	4.4575e-02
5.1488e-01	2.4291e+00	4.4118e-02
5.1868e-01	2.4264e+00	4.3667e-02
5.2253e-01	2.4236e+00	4.3224e-02
5.2645e-01	2.4210e+00	4.2788e-02
5.3042e-01	2.4183e+00	4.2358e-02
5.3445e-01	2.4157e+00	4.1935e-02
5.3855e-01	2.4131e+00	4.1519e-02
5.4270e-01	2.4106e+00	4.1108e-02
5.4692e-01	2.4081e+00	4.0704e-02
5.5121e-01	2.4056e+00	4.0306e-02
5.5557e-01	2.4032e+00	3.9913e-02
5.5999e-01	2.4007e+00	3.9526e-02
5.6449e-01	2.3983e+00	3.9145e-02
5.6906e-01	2.3960e+00	3.8769e-02
5.7370e-01	2.3936e+00	3.8399e-02
5.7842e-01	2.3913e+00	3.8033e-02
5.8322e-01	2.3891e+00	3.7673e-02
5.8810e-01	2.3868e+00	3.7317e-02
5.9306e-01	2.3846e+00	3.6967e-02
5.9811e-01	2.3824e+00	3.6621e-02
6.0324e-01	2.3802e+00	3.6280e-02
6.0846e-01	2.3781e+00	3.5944e-02
6.1377e-01	2.3759e+00	3.5612e-02
6.1918e-01	2.3738e+00	3.5284e-02
6.2468e-01	2.3718e+00	3.4961e-02
6.3028e-01	2.3697e+00	3.4642e-02
6.3598e-01	2.3677e+00	3.4327e-02
6.4179e-01	2.3657e+00	3.4016e-02
6.4770e-01	2.3637e+00	3.3709e-02
6.5372e-01	2.3617e+00	3.3406e-02
6.5986e-01	2.3598e+00	3.3107e-02
6.6611e-01	2.3579e+00	3.2812e-02
6.7248e-01	2.3560e+00	3.2520e-02
6.7897e-01	2.3541e+00	3.2232e-02
6.8560e-01	2.3523e+00	3.1947e-02
6.9235e-01	2.3504e+00	3.1666e-02
6.9923e-01	2.3486e+00	3.1389e-02
7.0626e-01	2.3468e+00	3.1114e-02
7.1342e-01	2.3450e+00	3.0843e-02
7.2074e-01	2.3433e+00	3.0575e-02
7.2820e-01	2.3415e+00	3.0311e-02
7.3582e-01	2.3398e+00	3.0049e-02
7.4361e-01	2.3381e+00	2.9791e-02
7.5156e-01	2.3365e+00	2.9535e-02
7.5968e-01	2.3348e+00	2.9283e-02
7.6798e-01	2.3331e+00	2.9033e-02
7.7646e-01	2.3315e+00	2.8787e-02
7.8513e-01	2.3299e+00	2.8543e-02
7.9400e-01	2.3283e+00	2.8302e-02
8.0306e-01	2.3267e+00	2.8063e-02
8.1234e-01	2.3252e+00	2.7827e-02
8.2184e-01	2.3237e+00	2.7594e-02
8.3156e-01	2.3221e+00	2.7364e-02
8.4151e-01	2.3206e+00	2.7136e-02
8.5171e-01	2.3191e+00	2.6910e-02
8.6215e-01	2.3177e+00	2.6687e-02
8.7286e-01	2.3162e+00	2.6466e-02
8.8383e-01	2.3147e+00	2.6248e-02
8.9508e-01	2.3133e+00	2.6032e-02
9.0663e-01	2.3119e+00	2.5818e-02
9.1847e-01	2.3105e+00	2.5607e-02
9.3063e-01	2.3091e+00	2.5397e-02
9.4311e-01	2.3078e+00	2.5190e-02
9.5593e-01	2.3064e+00	2.4985e-02
9.6911e-01	2.3051e+00	2.4782e-02
9.8266e-01	2.3037e+00	2.4582e-02
9.9659e-01	2.3024e+00	2.4383e-02
1.0109e+00	2.3011e+00	2.4186e-02
1.0257e+00	2.2998e+00	2.3992e-02
