Material: main / Pt / Rakic-LD
Optical constants. A. D. Rakić, A. B. Djurišic, J. M. Elazar, and M. L. Majewski. Optical properties of metallic films for vertical-cavity optoelectronic devices, Appl. Opt. 37, 5271-5283 (1998)[Calculation script (Python)]
Comments: Fit of experimental data from several sources to Lorentz-Drude (LD) model
Specs: {"n_absolute": true, "wavelength_vacuum": true}
wavelength (um)	n	k
2.4797e-01	1.4745e+00	1.7540e+00
2.5090e-01	1.4703e+00	1.7754e+00
2.5386e-01	1.4666e+00	1.7974e+00
2.5686e-01	1.4634e+00	1.8202e+00
2.5990e-01	1.4608e+00	1.8435e+00
2.6297e-01	1.4587e+00	1.8675e+00
2.6608e-01	1.4573e+00	1.8920e+00
2.6922e-01	1.4565e+00	1.9170e+00
2.7240e-01	1.4562e+00	1.9424e+00
2.7562e-01	1.4567e+00	1.9684e+00
2.7888e-01	1.4577e+00	1.9946e+00
2.8217e-01	1.4594e+00	2.0213e+00
2.8551e-01	1.4617e+00	2.0483e+00
2.8888e-01	1.4646e+00	2.0755e+00
2.9230e-01	1.4681e+00	2.1030e+00
2.9575e-01	1.4723e+00	2.1307e+00
2.9925e-01	1.4770e+00	2.1586e+00
3.0278e-01	1.4823e+00	2.1866e+00
3.0636e-01	1.4882e+00	2.2148e+00
3.0998e-01	1.4946e+00	2.2430e+00
3.1364e-01	1.5016e+00	2.2713e+00
3.1735e-01	1.5091e+00	2.2997e+00
3.2110e-01	1.5170e+00	2.3281e+00
3.2489e-01	1.5255e+00	2.3564e+00
3.2873e-01	1.5343e+00	2.3848e+00
3.3262e-01	1.5436e+00	2.4132e+00
3.3655e-01	1.5533e+00	2.4415e+00
3.4053e-01	1.5633e+00	2.4698e+00
3.4455e-01	1.5737e+00	2.4980e+00
3.4862e-01	1.5844e+00	2.5261e+00
3.5274e-01	1.5954e+00	2.5542e+00
3.5691e-01	1.6066e+00	2.5823e+00
3.6113e-01	1.6181e+00	2.6102e+00
3.6540e-01	1.6298e+00	2.6381e+00
3.6971e-01	1.6416e+00	2.6660e+00
3.7408e-01	1.6536e+00	2.6938e+00
3.7850e-01	1.6658e+00	2.7216e+00
3.8298e-01	1.6780e+00	2.7494e+00
3.8750e-01	1.6904e+00	2.7772e+00
3.9208e-01	1.7028e+00	2.8050e+00
3.9671e-01	1.7153e+00	2.8329e+00
4.0140e-01	1.7279e+00	2.8608e+00
4.0614e-01	1.7405e+00	2.8888e+00
4.1094e-01	1.7531e+00	2.9168e+00
4.1580e-01	1.7657e+00	2.9450e+00
4.2071e-01	1.7784e+00	2.9734e+00
4.2569e-01	1.7910e+00	3.0019e+00
4.3072e-01	1.8037e+00	3.0306e+00
4.3581e-01	1.8164e+00	3.0595e+00
4.4096e-01	1.8291e+00	3.0887e+00
4.4617e-01	1.8418e+00	3.1181e+00
4.5144e-01	1.8546e+00	3.1479e+00
4.5677e-01	1.8674e+00	3.1779e+00
4.6217e-01	1.8803e+00	3.2082e+00
4.6763e-01	1.8932e+00	3.2389e+00
4.7316e-01	1.9063e+00	3.2700e+00
4.7875e-01	1.9194e+00	3.3014e+00
4.8441e-01	1.9327e+00	3.3332e+00
4.9013e-01	1.9462e+00	3.3655e+00
4.9592e-01	1.9598e+00	3.3981e+00
5.0178e-01	1.9736e+00	3.4311e+00
5.0771e-01	1.9876e+00	3.4646e+00
5.1371e-01	2.0019e+00	3.4985e+00
5.1978e-01	2.0164e+00	3.5328e+00
5.2593e-01	2.0312e+00	3.5676e+00
5.3214e-01	2.0464e+00	3.6027e+00
5.3843e-01	2.0619e+00	3.6383e+00
5.4479e-01	2.0777e+00	3.6742e+00
5.5123e-01	2.0939e+00	3.7106e+00
5.5774e-01	2.1105e+00	3.7474e+00
5.6434e-01	2.1275e+00	3.7845e+00
5.7100e-01	2.1450e+00	3.8220e+00
5.7775e-01	2.1629e+00	3.8598e+00
5.8458e-01	2.1813e+00	3.8979e+00
5.9149e-01	2.2002e+00	3.9364e+00
5.9848e-01	2.2195e+00	3.9751e+00
6.0555e-01	2.2393e+00	4.0141e+00
6.1270e-01	2.2597e+00	4.0533e+00
6.1995e-01	2.2806e+00	4.0928e+00
6.2727e-01	2.3020e+00	4.1324e+00
6.3468e-01	2.3239e+00	4.1723e+00
6.4218e-01	2.3463e+00	4.2123e+00
6.4977e-01	2.3692e+00	4.2524e+00
6.5745e-01	2.3927e+00	4.2927e+00
6.6522e-01	2.4167e+00	4.3330e+00
6.7308e-01	2.4412e+00	4.3734e+00
6.8103e-01	2.4661e+00	4.4139e+00
6.8908e-01	2.4916e+00	4.4543e+00
6.9723e-01	2.5175e+00	4.4948e+00
7.0546e-01	2.5439e+00	4.5353e+00
7.1380e-01	2.5708e+00	4.5758e+00
7.2224e-01	2.5980e+00	4.6163e+00
7.3077e-01	2.6257e+00	4.6567e+00
7.3941e-01	2.6538e+00	4.6970e+00
7.4814e-01	2.6822e+00	4.7373e+00
7.5699e-01	2.7110e+00	4.7775e+00
7.6593e-01	2.7401e+00	4.8177e+00
7.7498e-01	2.7696e+00	4.8578e+00
7.8414e-01	2.7993e+00	4.8977e+00
7.9341e-01	2.8293e+00	4.9376e+00
8.0278e-01	2.8595e+00	4.9775e+00
8.1227e-01	2.8899e+00	5.0173e+00
8.2187e-01	2.9205e+00	5.0570e+00
8.3158e-01	2.9513e+00	5.0967e+00
8.4141e-01	2.9823e+00	5.1363e+00
8.5135e-01	3.0134e+00	5.1760e+00
8.6141e-01	3.0447e+00	5.2156e+00
8.7159e-01	3.0760e+00	5.2553e+00
8.8189e-01	3.1075e+00	5.2950e+00
8.9231e-01	3.1390e+00	5.3349e+00
9.0285e-01	3.1706e+00	5.3748e+00
9.1352e-01	3.2024e+00	5.4149e+00
9.2432e-01	3.2342e+00	5.4552e+00
9.3524e-01	3.2661e+00	5.4957e+00
9.4629e-01	3.2981e+00	5.5364e+00
9.5748e-01	3.3303e+00	5.5774e+00
9.6879e-01	3.3626e+00	5.6187e+00
9.8024e-01	3.3950e+00	5.6604e+00
9.9182e-01	3.4277e+00	5.7024e+00
1.0035e+00	3.4607e+00	5.7449e+00
1.0154e+00	3.4939e+00	5.7878e+00
1.0274e+00	3.5275e+00	5.8311e+00
1.0395e+00	3.5615e+00	5.8749e+00
1.0518e+00	3.5960e+00	5.9193e+00
1.0643e+00	3.6310e+00	5.9641e+00
1.0768e+00	3.6666e+00	6.0094e+00
1.0896e+00	3.7030e+00	6.0552e+00
1.1024e+00	3.7401e+00	6.1015e+00
1.1155e+00	3.7781e+00	6.1483e+00
1.1286e+00	3.8171e+00	6.1954e+00
1.1420e+00	3.8572e+00	6.2429e+00
1.1555e+00	3.8985e+00	6.2906e+00
1.1691e+00	3.9411e+00	6.3386e+00
1.1829e+00	3.9850e+00	6.3866e+00
1.1969e+00	4.0304e+00	6.4346e+00
1.2111e+00	4.0774e+00	6.4825e+00
1.2254e+00	4.1260e+00	6.5300e+00
1.2399e+00	4.1764e+00	6.5770e+00
1.2545e+00	4.2285e+00	6.6233e+00
1.2693e+00	4.2823e+00	6.6686e+00
1.2843e+00	4.3380e+00	6.7128e+00
1.2995e+00	4.3955e+00	6.7556e+00
1.3149e+00	4.4548e+00	6.7968e+00
1.3304e+00	4.5157e+00	6.8360e+00
1.3461e+00	4.5782e+00	6.8729e+00
1.3620e+00	4.6421e+00	6.9073e+00
1.3781e+00	4.7072e+00	6.9390e+00
1.3944e+00	4.7733e+00	6.9675e+00
1.4109e+00	4.8401e+00	6.9927e+00
1.4276e+00	4.9073e+00	7.0144e+00
1.4444e+00	4.9744e+00	7.0322e+00
1.4615e+00	5.0412e+00	7.0461e+00
1.4788e+00	5.1072e+00	7.0559e+00
1.4962e+00	5.1718e+00	7.0615e+00
1.5139e+00	5.2346e+00	7.0629e+00
1.5318e+00	5.2951e+00	7.0602e+00
1.5499e+00	5.3528e+00	7.0534e+00
1.5682e+00	5.4070e+00	7.0427e+00
1.5868e+00	5.4574e+00	7.0284e+00
1.6055e+00	5.5034e+00	7.0108e+00
1.6245e+00	5.5447e+00	6.9901e+00
1.6437e+00	5.5807e+00	6.9669e+00
1.6631e+00	5.6112e+00	6.9416e+00
1.6828e+00	5.6358e+00	6.9146e+00
1.7027e+00	5.6544e+00	6.8866e+00
1.7228e+00	5.6666e+00	6.8580e+00
1.7431e+00	5.6725e+00	6.8295e+00
1.7637e+00	5.6719e+00	6.8015e+00
1.7846e+00	5.6648e+00	6.7747e+00
1.8057e+00	5.6514e+00	6.7495e+00
1.8270e+00	5.6316e+00	6.7266e+00
1.8486e+00	5.6058e+00	6.7064e+00
1.8704e+00	5.5739e+00	6.6894e+00
1.8925e+00	5.5364e+00	6.6761e+00
1.9149e+00	5.4934e+00	6.6669e+00
1.9375e+00	5.4453e+00	6.6621e+00
1.9604e+00	5.3924e+00	6.6622e+00
1.9836e+00	5.3350e+00	6.6675e+00
2.0070e+00	5.2734e+00	6.6782e+00
2.0307e+00	5.2081e+00	6.6946e+00
2.0547e+00	5.1394e+00	6.7169e+00
2.0790e+00	5.0678e+00	6.7454e+00
2.1036e+00	4.9936e+00	6.7801e+00
2.1285e+00	4.9172e+00	6.8213e+00
2.1536e+00	4.8390e+00	6.8689e+00
2.1791e+00	4.7595e+00	6.9231e+00
2.2048e+00	4.6791e+00	6.9838e+00
2.2309e+00	4.5981e+00	7.0511e+00
2.2572e+00	4.5170e+00	7.1249e+00
2.2839e+00	4.4361e+00	7.2051e+00
2.3109e+00	4.3557e+00	7.2916e+00
2.3382e+00	4.2763e+00	7.3843e+00
2.3658e+00	4.1981e+00	7.4831e+00
2.3938e+00	4.1214e+00	7.5876e+00
2.4221e+00	4.0464e+00	7.6978e+00
2.4507e+00	3.9735e+00	7.8135e+00
2.4797e+00	3.9028e+00	7.9343e+00
2.5090e+00	3.8345e+00	8.0601e+00
2.5386e+00	3.7688e+00	8.1907e+00
2.5686e+00	3.7057e+00	8.3258e+00
2.5990e+00	3.6454e+00	8.4651e+00
2.6297e+00	3.5879e+00	8.6085e+00
2.6607e+00	3.5333e+00	8.7557e+00
2.6922e+00	3.4817e+00	8.9065e+00
2.7240e+00	3.4330e+00	9.0608e+00
2.7562e+00	3.3872e+00	9.2183e+00
2.7888e+00	3.3444e+00	9.3788e+00
2.8217e+00	3.3045e+00	9.5423e+00
2.8551e+00	3.2675e+00	9.7085e+00
2.8888e+00	3.2334e+00	9.8773e+00
2.9229e+00	3.2020e+00	1.0049e+01
2.9575e+00	3.1735e+00	1.0222e+01
2.9924e+00	3.1476e+00	1.0398e+01
3.0278e+00	3.1244e+00	1.0577e+01
3.0636e+00	3.1037e+00	1.0757e+01
3.0998e+00	3.0857e+00	1.0939e+01
3.1364e+00	3.0701e+00	1.1123e+01
3.1735e+00	3.0570e+00	1.1310e+01
3.2110e+00	3.0462e+00	1.1498e+01
3.2489e+00	3.0378e+00	1.1688e+01
3.2873e+00	3.0317e+00	1.1879e+01
3.3261e+00	3.0278e+00	1.2073e+01
3.3654e+00	3.0262e+00	1.2268e+01
3.4052e+00	3.0267e+00	1.2465e+01
3.4455e+00	3.0293e+00	1.2663e+01
3.4862e+00	3.0340e+00	1.2864e+01
3.5274e+00	3.0408e+00	1.3066e+01
3.5691e+00	3.0496e+00	1.3269e+01
3.6112e+00	3.0604e+00	1.3475e+01
3.6539e+00	3.0731e+00	1.3681e+01
3.6971e+00	3.0878e+00	1.3890e+01
3.7408e+00	3.1044e+00	1.4100e+01
3.7850e+00	3.1229e+00	1.4312e+01
3.8297e+00	3.1433e+00	1.4526e+01
3.8750e+00	3.1655e+00	1.4741e+01
3.9207e+00	3.1896e+00	1.4958e+01
3.9671e+00	3.2155e+00	1.5176e+01
4.0140e+00	3.2433e+00	1.5396e+01
4.0614e+00	3.2728e+00	1.5618e+01
4.1094e+00	3.3042e+00	1.5842e+01
4.1579e+00	3.3374e+00	1.6067e+01
4.2071e+00	3.3724e+00	1.6295e+01
4.2568e+00	3.4091e+00	1.6523e+01
4.3071e+00	3.4477e+00	1.6754e+01
4.3580e+00	3.4880e+00	1.6986e+01
4.4095e+00	3.5302e+00	1.7221e+01
4.4616e+00	3.5742e+00	1.7456e+01
4.5143e+00	3.6199e+00	1.7694e+01
4.5677e+00	3.6675e+00	1.7934e+01
4.6217e+00	3.7169e+00	1.8175e+01
4.6763e+00	3.7681e+00	1.8419e+01
4.7315e+00	3.8212e+00	1.8664e+01
4.7874e+00	3.8761e+00	1.8911e+01
4.8440e+00	3.9329e+00	1.9160e+01
4.9013e+00	3.9915e+00	1.9410e+01
4.9592e+00	4.0521e+00	1.9663e+01
5.0178e+00	4.1145e+00	1.9918e+01
5.0771e+00	4.1788e+00	2.0174e+01
5.1371e+00	4.2451e+00	2.0433e+01
5.1978e+00	4.3133e+00	2.0693e+01
5.2592e+00	4.3835e+00	2.0956e+01
5.3213e+00	4.4556e+00	2.1220e+01
5.3842e+00	4.5298e+00	2.1486e+01
5.4479e+00	4.6060e+00	2.1755e+01
5.5122e+00	4.6842e+00	2.2025e+01
5.5774e+00	4.7645e+00	2.2298e+01
5.6433e+00	4.8469e+00	2.2572e+01
5.7100e+00	4.9313e+00	2.2848e+01
5.7774e+00	5.0179e+00	2.3127e+01
5.8457e+00	5.1067e+00	2.3407e+01
5.9148e+00	5.1976e+00	2.3690e+01
5.9847e+00	5.2907e+00	2.3975e+01
6.0554e+00	5.3861e+00	2.4261e+01
6.1270e+00	5.4837e+00	2.4550e+01
6.1994e+00	5.5836e+00	2.4841e+01
6.2726e+00	5.6858e+00	2.5134e+01
6.3468e+00	5.7903e+00	2.5429e+01
6.4218e+00	5.8972e+00	2.5726e+01
6.4976e+00	6.0064e+00	2.6025e+01
6.5744e+00	6.1181e+00	2.6327e+01
6.6521e+00	6.2322e+00	2.6630e+01
6.7307e+00	6.3488e+00	2.6935e+01
6.8103e+00	6.4679e+00	2.7243e+01
6.8907e+00	6.5895e+00	2.7552e+01
6.9722e+00	6.7136e+00	2.7864e+01
7.0546e+00	6.8404e+00	2.8178e+01
7.1379e+00	6.9697e+00	2.8494e+01
7.2223e+00	7.1017e+00	2.8812e+01
7.3076e+00	7.2364e+00	2.9132e+01
7.3940e+00	7.3738e+00	2.9454e+01
7.4813e+00	7.5139e+00	2.9778e+01
7.5698e+00	7.6567e+00	3.0104e+01
7.6592e+00	7.8024e+00	3.0432e+01
7.7497e+00	7.9509e+00	3.0762e+01
7.8413e+00	8.1022e+00	3.1095e+01
7.9340e+00	8.2564e+00	3.1429e+01
8.0277e+00	8.4135e+00	3.1765e+01
8.1226e+00	8.5735e+00	3.2103e+01
8.2186e+00	8.7365e+00	3.2443e+01
8.3157e+00	8.9025e+00	3.2786e+01
8.4139e+00	9.0716e+00	3.3130e+01
8.5134e+00	9.2436e+00	3.3476e+01
8.6140e+00	9.4188e+00	3.3824e+01
8.7158e+00	9.5971e+00	3.4174e+01
8.8188e+00	9.7785e+00	3.4525e+01
8.9230e+00	9.9630e+00	3.4879e+01
9.0284e+00	1.0151e+01	3.5235e+01
9.1351e+00	1.0342e+01	3.5592e+01
9.2431e+00	1.0536e+01	3.5951e+01
9.3523e+00	1.0733e+01	3.6312e+01
9.4628e+00	1.0934e+01	3.6675e+01
9.5746e+00	1.1138e+01	3.7039e+01
9.6878e+00	1.1346e+01	3.7405e+01
9.8023e+00	1.1556e+01	3.7773e+01
9.9181e+00	1.1770e+01	3.8143e+01
1.0035e+01	1.1988e+01	3.8514e+01
1.0154e+01	1.2209e+01	3.8887e+01
1.0274e+01	1.2433e+01	3.9262e+01
1.0395e+01	1.2661e+01	3.9638e+01
1.0518e+01	1.2893e+01	4.0015e+01
1.0642e+01	1.3127e+01	4.0395e+01
1.0768e+01	1.3366e+01	4.0775e+01
1.0895e+01	1.3608e+01	4.1157e+01
1.1024e+01	1.3853e+01	4.1541e+01
1.1154e+01	1.4102e+01	4.1926e+01
1.1286e+01	1.4355e+01	4.2313e+01
1.1420e+01	1.4611e+01	4.2701e+01
1.1555e+01	1.4871e+01	4.3090e+01
1.1691e+01	1.5134e+01	4.3480e+01
1.1829e+01	1.5401e+01	4.3872e+01
1.1969e+01	1.5672e+01	4.4265e+01
1.2111e+01	1.5946e+01	4.4659e+01
1.2254e+01	1.6224e+01	4.5055e+01
1.2398e+01	1.6506e+01	4.5452e+01
