Material: main / Pt / Windt
Optical constants. D. L. Windt, W. C. Cash, M. Scott, P. Arendt, B. Newnam, R. F. Fisher, A. B. Swartzlander. Optical constants for thin films of Ti, Zr, Nb, Mo, Ru, Rh, Pd, Ag, Hf, Ta, W, Re, Ir, Os, Pt, and Au from 24 Å to 1216 Å, Appl. Opt. 27, 246-278 (1988)
wavelength (um)	n	k
0.00236	0.99581	0.00378
0.00316	0.99540	0.00384
0.00447	0.99310	0.00827
0.00676	0.9860	0.00976
0.01140	0.9311	0.0235
0.01355	0.898	0.0578
0.01714	0.853	0.168
0.02430	0.911	0.245
0.02563	0.856	0.178
0.03038	0.792	0.208
0.03270	0.773	0.236
0.03568	0.727	0.327
0.03793	0.719	0.385
0.04059	0.757	0.527
0.04478	0.792	0.574
0.04607	0.767	0.592
0.04895	0.835	0.700
0.05391	0.887	0.821
0.05843	0.993	0.952
0.06163	1.135	0.906
0.06714	1.315	0.814
0.07185	1.13	0.774
0.07359	1.17	0.787
0.07437	1.17	0.811
0.08345	1.18	0.846
0.08780	1.24	0.885
0.09198	1.18	0.868
0.09321	1.19	0.873
0.09888	1.13	0.856
0.10258	1.18	0.898
0.10482	1.16	0.925
0.10667	1.17	0.933
0.10857	1.44	0.958
0.11350	1.19	0.949
0.12007	1.33	1.04
0.12157	1.34	1.03
