Material: semiconductor alloys / AlAs-GaAs / Aspnes-19.8
Optical constants. D. E. Aspnes, S. M. Kelso, R. A. Logan and R. Bhat. Optical properties of AlxGa1-xAs, J. Appl. Phys. 60, 754-767 (1986)
Comments: AlxGa1-xAs; x = 0.198
wavelength (um)	n	k
0.2066	1.333	2.457
0.2101	1.339	2.531
0.2138	1.349	2.600
0.2175	1.366	2.688
0.2214	1.393	2.794
0.2254	1.433	2.912
0.2296	1.490	3.049
0.2339	1.567	3.208
0.2384	1.677	3.407
0.2431	1.860	3.654
0.2480	2.210	3.914
0.2530	2.734	3.997
0.2583	3.238	3.867
0.2638	3.638	3.575
0.2695	3.924	3.223
0.2755	4.053	2.803
0.2818	4.018	2.449
0.2883	3.911	2.206
0.2952	3.795	2.059
0.3024	3.701	1.976
0.3100	3.633	1.933
0.3179	3.588	1.917
0.3263	3.568	1.922
0.3351	3.572	1.942
0.3444	3.602	1.979
0.3542	3.668	2.034
0.3647	3.792	2.115
0.3757	4.084	2.180
0.3875	4.379	1.978
0.3999	4.607	1.857
0.4133	4.943	1.322
0.4275	4.757	0.865
0.4428	4.547	0.636
0.4592	4.375	0.499
0.4769	4.235	0.409
0.4959	4.118	0.341
0.5166	4.022	0.288
0.5391	3.940	0.242
0.5636	3.871	0.202
0.5904	3.815	0.165
0.6199	3.759	0.118
0.6525	3.700	0.094
0.6888	3.662	0.082
0.7293	3.635	0.002
0.7749	3.536	0.002
0.8266	3.457	0.000
