Material: semiconductor alloys / AlAs-GaAs / Aspnes-59.0
Optical constants. D. E. Aspnes, S. M. Kelso, R. A. Logan and R. Bhat. Optical properties of AlxGa1-xAs, J. Appl. Phys. 60, 754-767 (1986)
Comments: AlxGa1-xAs; x = 0.590
wavelength (um)	n	k
0.2066	1.385	2.420
0.2101	1.370	2.485
0.2138	1.370	2.565
0.2175	1.389	2.669
0.2214	1.422	2.785
0.2254	1.475	2.915
0.2296	1.553	3.059
0.2339	1.661	3.217
0.2384	1.805	3.392
0.2431	2.007	3.581
0.2480	2.304	3.772
0.2530	2.740	3.881
0.2583	3.221	3.866
0.2638	3.762	3.617
0.2695	4.120	3.107
0.2755	4.127	2.616
0.2818	4.015	2.318
0.2883	3.903	2.142
0.2952	3.815	2.038
0.3024	3.758	1.978
0.3100	3.729	1.947
0.3179	3.725	1.935
0.3263	3.750	1.944
0.3351	3.822	1.973
0.3444	3.977	2.002
0.3542	4.224	1.924
0.3647	4.429	1.754
0.3757	4.665	1.450
0.3875	4.649	1.028
0.3999	4.497	0.754
0.4133	4.343	0.584
0.4275	4.208	0.468
0.4428	4.092	0.384
0.4592	3.992	0.317
0.4769	3.909	0.262
0.4959	3.837	0.205
0.5166	3.758	0.157
0.5391	3.690	0.126
0.5636	3.658	0.063
0.5904	3.546	0.005
0.6199	3.467	0.000
0.6525	3.405	0.000
0.6888	3.354	0.000
0.7293	3.313	0.000
0.7749	3.274	0.000
0.8266	3.237	0.000
