Material: semiconductor alloys / AlAs-GaAs / Aspnes-80.4
Optical constants. D. E. Aspnes, S. M. Kelso, R. A. Logan and R. Bhat. Optical properties of AlxGa1-xAs, J. Appl. Phys. 60, 754-767 (1986)
Comments: AlxGa1-xAs; x = 0.804
wavelength (um)	n	k
0.2066	1.368	2.409
0.2101	1.360	2.473
0.2138	1.354	2.560
0.2175	1.370	2.667
0.2214	1.399	2.792
0.2254	1.447	2.935
0.2296	1.528	3.104
0.2339	1.661	3.293
0.2384	1.857	3.475
0.2431	2.110	3.635
0.2480	2.426	3.763
0.2530	2.833	3.815
0.2583	3.233	3.765
0.2638	3.751	3.582
0.2695	4.107	3.128
0.2755	4.112	2.639
0.2818	4.004	2.389
0.2883	3.928	2.256
0.2952	3.893	2.183
0.3024	3.904	2.144
0.3100	3.962	2.119
0.3179	4.078	2.092
0.3263	4.267	2.013
0.3351	4.462	1.820
0.3444	4.613	1.561
0.3542	4.667	1.199
0.3647	4.562	0.890
0.3757	4.413	0.685
0.3875	4.277	0.541
0.3999	4.155	0.437
0.4133	4.050	0.353
0.4275	3.961	0.276
0.4428	3.872	0.205
0.4592	3.787	0.161
0.4769	3.738	0.104
0.4959	3.635	0.013
0.5166	3.519	0.004
0.5391	3.440	0.003
0.5636	3.378	0.000
0.5904	3.322	0.000
0.6199	3.277	0.000
0.6525	3.236	0.000
0.6888	3.202	0.000
0.7293	3.173	0.000
0.7749	3.147	0.000
0.8266	3.124	0.000
