Material: semiconductor alloys / AlAs-GaAs / Aspnes-70.0
Optical constants. D. E. Aspnes, S. M. Kelso, R. A. Logan and R. Bhat. Optical properties of AlxGa1-xAs, J. Appl. Phys. 60, 754-767 (1986)
Comments: AlxGa1-xAs; x = 0.700
wavelength (um)	n	k
0.2066	1.377	2.426
0.2101	1.366	2.493
0.2138	1.365	2.581
0.2175	1.375	2.688
0.2214	1.407	2.809
0.2254	1.462	2.946
0.2296	1.545	3.098
0.2339	1.662	3.269
0.2384	1.829	3.445
0.2431	2.049	3.620
0.2480	2.354	3.788
0.2530	2.777	3.873
0.2583	3.214	3.853
0.2638	3.758	3.637
0.2695	4.144	3.150
0.2755	4.142	2.645
0.2818	4.028	2.365
0.2883	3.932	2.206
0.2952	3.868	2.111
0.3024	3.835	2.055
0.3100	3.836	2.023
0.3179	3.868	2.009
0.3263	3.947	2.006
0.3351	4.103	1.993
0.3444	4.319	1.877
0.3542	4.502	1.678
0.3647	4.665	1.357
0.3757	4.615	0.980
0.3875	4.471	0.735
0.3999	4.325	0.574
0.4133	4.196	0.460
0.4275	4.084	0.374
0.4428	3.987	0.307
0.4592	3.906	0.245
0.4769	3.823	0.184
0.4959	3.746	0.129
0.5166	3.696	0.069
0.5391	3.595	0.002
0.5636	3.500	0.000
0.5904	3.425	0.000
0.6199	3.361	0.000
0.6525	3.306	0.000
0.6888	3.261	0.000
0.7293	3.225	0.000
0.7749	3.188	0.000
0.8266	3.153	0.000
