Material: semiconductor alloys / AlAs-GaAs / Aspnes-31.5
Optical constants. D. E. Aspnes, S. M. Kelso, R. A. Logan and R. Bhat. Optical properties of AlxGa1-xAs, J. Appl. Phys. 60, 754-767 (1986)
Comments: AlxGa1-xAs; x = 0.315
wavelength (um)	n	k
0.2066	1.347	2.443
0.2101	1.338	2.502
0.2138	1.352	2.577
0.2175	1.367	2.669
0.2214	1.393	2.776
0.2254	1.437	2.893
0.2296	1.497	3.030
0.2339	1.581	3.187
0.2384	1.696	3.376
0.2431	1.878	3.604
0.2480	2.198	3.845
0.2530	2.684	3.957
0.2583	3.196	3.881
0.2638	3.669	3.617
0.2695	3.982	3.177
0.2755	4.062	2.733
0.2818	3.999	2.393
0.2883	3.883	2.172
0.2952	3.772	2.040
0.3024	3.686	1.966
0.3100	3.625	1.927
0.3179	3.588	1.914
0.3263	3.575	1.921
0.3351	3.589	1.946
0.3444	3.633	1.988
0.3542	3.724	2.054
0.3647	3.922	2.134
0.3757	4.246	2.041
0.3875	4.456	1.879
0.3999	4.825	1.558
0.4133	4.781	1.012
0.4275	4.582	0.722
0.4428	4.404	0.556
0.4592	4.258	0.446
0.4769	4.135	0.367
0.4959	4.032	0.305
0.5166	3.945	0.258
0.5391	3.872	0.227
0.5636	3.815	0.202
0.5904	3.750	0.167
0.6199	3.690	0.145
0.6525	3.650	0.111
0.6888	3.592	0.008
0.7293	3.509	0.000
0.7749	3.456	0.000
0.8266	3.404	0.000
