Material: semiconductor alloys / AlAs-GaAs / Papatryfonos-41.1
Optical constants. K. Papatryfonos, T. Angelova, A. Brimont, B. Reid, S. Guldin, P. R. Smith, M. Tang, K. Li, A. J. Seeds, H. Liu, D. R. Selviah. Refractive indices of MBE-grown AlxGa1-xAs ternary alloys in the transparent wavelength region, AIP Adv. 11, 025327 (2021) (Numerical data kindly provided by Konstantinos Papatryfonos)
Comments: AlxGa1-xAs; x = 0.411
Specs: {"n_absolute": true, "wavelength_vacuum": true}
wavelength (um)	n	k
0.26049	3.49781E+00	3.77635E+00
0.26159	3.59669E+00	3.71488E+00
0.26270	3.68929E+00	3.64363E+00
0.26381	3.77408E+00	3.56208E+00
0.26494	3.84972E+00	3.47119E+00
0.26608	3.91493E+00	3.37515E+00
0.26723	3.96851E+00	3.27675E+00
0.26838	4.01132E+00	3.17750E+00
0.26955	4.04361E+00	3.07892E+00
0.27073	4.06593E+00	2.98281E+00
0.27191	4.07915E+00	2.89024E+00
0.27311	4.08474E+00	2.80180E+00
0.27432	4.08359E+00	2.71787E+00
0.27554	4.07685E+00	2.63980E+00
0.27677	4.06539E+00	2.56701E+00
0.27801	4.05001E+00	2.49944E+00
0.27926	4.03173E+00	2.43767E+00
0.28053	4.01123E+00	2.38102E+00
0.28180	3.98921E+00	2.33061E+00
0.28309	3.96632E+00	2.28445E+00
0.28439	3.94306E+00	2.24229E+00
0.28570	3.91954E+00	2.20409E+00
0.28702	3.89627E+00	2.16985E+00
0.28835	3.87348E+00	2.13903E+00
0.28970	3.85127E+00	2.11114E+00
0.29106	3.82989E+00	2.08594E+00
0.29244	3.80955E+00	2.06332E+00
0.29382	3.79031E+00	2.04347E+00
0.29522	3.77215E+00	2.02575E+00
0.29663	3.75503E+00	2.00970E+00
0.29806	3.73912E+00	1.99536E+00
0.29950	3.72417E+00	1.98277E+00
0.30095	3.71018E+00	1.97155E+00
0.30242	3.69719E+00	1.96175E+00
0.30390	3.68521E+00	1.95319E+00
0.30540	3.67410E+00	1.94578E+00
0.30691	3.66405E+00	1.93944E+00
0.30844	3.65497E+00	1.93432E+00
0.30998	3.64683E+00	1.92972E+00
0.31154	3.63972E+00	1.92611E+00
0.31311	3.63355E+00	1.92351E+00
0.31470	3.62831E+00	1.92196E+00
0.31631	3.62410E+00	1.92099E+00
0.31793	3.62091E+00	1.92094E+00
0.31957	3.61871E+00	1.92157E+00
0.32122	3.61751E+00	1.92286E+00
0.32290	3.61738E+00	1.92495E+00
0.32459	3.61829E+00	1.92790E+00
0.32630	3.62031E+00	1.93142E+00
0.32802	3.62358E+00	1.93562E+00
0.32977	3.62806E+00	1.94049E+00
0.33153	3.63374E+00	1.94634E+00
0.33331	3.64068E+00	1.95294E+00
0.33512	3.64905E+00	1.96026E+00
0.33694	3.65881E+00	1.96826E+00
0.33878	3.67026E+00	1.97695E+00
0.34064	3.68366E+00	1.98678E+00
0.34252	3.69925E+00	1.99744E+00
0.34442	3.71732E+00	2.00907E+00
0.34635	3.73850E+00	2.02174E+00
0.34829	3.76320E+00	2.03541E+00
0.35026	3.79201E+00	2.05009E+00
0.35225	3.82569E+00	2.06482E+00
0.35426	3.86519E+00	2.07888E+00
0.35630	3.91100E+00	2.09131E+00
0.35836	3.96278E+00	2.09893E+00
0.36044	4.01947E+00	2.09863E+00
0.36255	4.07928E+00	2.08867E+00
0.36468	4.13907E+00	2.06859E+00
0.36684	4.19598E+00	2.03938E+00
0.36903	4.24866E+00	2.00334E+00
0.37124	4.29682E+00	1.96578E+00
0.37347	4.34143E+00	1.92985E+00
0.37574	4.38548E+00	1.89690E+00
0.37803	4.43232E+00	1.86752E+00
0.38035	4.48500E+00	1.83886E+00
0.38269	4.54466E+00	1.80594E+00
0.38507	4.60928E+00	1.75953E+00
0.38748	4.67290E+00	1.69278E+00
0.38991	4.72925E+00	1.60256E+00
0.39238	4.77184E+00	1.49462E+00
0.39488	4.79648E+00	1.37983E+00
0.39741	4.80220E+00	1.26792E+00
0.39998	4.79233E+00	1.16574E+00
0.40257	4.77062E+00	1.07612E+00
0.40520	4.74096E+00	9.96250E-01
0.40787	4.70649E+00	9.25130E-01
0.41057	4.66981E+00	8.62640E-01
0.41331	4.63231E+00	8.07760E-01
0.41608	4.59481E+00	7.59220E-01
0.41889	4.55779E+00	7.15370E-01
0.42174	4.52159E+00	6.75680E-01
0.42463	4.48647E+00	6.39740E-01
0.42756	4.45238E+00	6.08410E-01
0.43053	4.41933E+00	5.79170E-01
0.43354	4.38737E+00	5.51580E-01
0.43659	4.35662E+00	5.25990E-01
0.43969	4.32691E+00	5.02500E-01
0.44283	4.29825E+00	4.80520E-01
0.44602	4.27052E+00	4.60650E-01
0.44925	4.24373E+00	4.42580E-01
0.45253	4.21784E+00	4.26070E-01
0.45586	4.19280E+00	4.09510E-01
0.45923	4.16862E+00	3.92890E-01
0.46266	4.14532E+00	3.78530E-01
0.46614	4.12287E+00	3.64770E-01
0.46967	4.10122E+00	3.50950E-01
0.47325	4.08033E+00	3.39890E-01
0.47689	4.06013E+00	3.26110E-01
0.48059	4.04062E+00	3.12810E-01
0.48435	4.02176E+00	3.01440E-01
0.48816	4.00342E+00	2.92320E-01
0.49203	3.98562E+00	2.80610E-01
0.49597	3.96841E+00	2.71470E-01
0.49997	3.95179E+00	2.62540E-01
0.50403	3.93573E+00	2.53090E-01
0.50817	3.92027E+00	2.43780E-01
0.51237	3.90541E+00	2.35850E-01
0.51664	3.89112E+00	2.28180E-01
0.52098	3.87741E+00	2.20810E-01
0.52539	3.86441E+00	2.13920E-01
0.52988	3.85208E+00	2.07860E-01
0.53445	3.84014E+00	2.01460E-01
0.53910	3.82816E+00	1.93800E-01
0.54383	3.81584E+00	1.84850E-01
0.54864	3.80283E+00	1.75200E-01
0.55354	3.78914E+00	1.66050E-01
0.55853	3.77505E+00	1.58030E-01
0.56360	3.76098E+00	1.51070E-01
0.56877	3.74724E+00	1.44770E-01
0.57404	3.73401E+00	1.38590E-01
0.57940	3.72138E+00	1.32570E-01
0.58487	3.70947E+00	1.26620E-01
0.59044	3.69729E+00	1.20680E-01
0.59612	3.68698E+00	1.14630E-01
0.60191	3.67740E+00	1.08220E-01
0.60781	3.66839E+00	1.00530E-01
0.61382	3.66031E+00	9.37800E-02
0.61996	3.65646E+00	8.74400E-02
0.62623	3.65883E+00	7.67000E-02
0.63262	3.65649E+00	4.46300E-02
0.63914	3.63391E+00	2.27900E-02
0.64579	3.60872E+00	1.00300E-02
0.65259	3.58846E+00	4.56000E-03
0.65954	3.56795E+00	3.70000E-03
0.66663	3.54933E+00	1.65000E-03
0.67387	3.53240E+00	7.79000E-04
0.68128	3.51679E+00	3.11000E-04
0.68885	3.50219E+00	1.34000E-04
0.69659	3.48855E+00	1.86000E-04
0.70450	3.47583E+00	1.03000E-04
0.71260	3.46395E+00	2.80000E-05
0.72089	3.45269E+00	0.00000E+00
0.72937	3.44177E+00	0.00000E+00
0.73805	3.43136E+00	0.00000E+00
0.74694	3.42146E+00	0.00000E+00
0.75605	3.41153E+00	0.00000E+00
0.76539	3.40126E+00	0.00000E+00
0.77495	3.39096E+00	0.00000E+00
0.78476	3.38038E+00	0.00000E+00
0.79482	3.36976E+00	0.00000E+00
0.80515	3.35937E+00	0.00000E+00
0.81574	3.35031E+00	0.00000E+00
0.82662	3.34345E+00	0.00000E+00
0.83779	3.33552E+00	0.00000E+00
0.84926	3.32911E+00	0.00000E+00
0.86106	3.32328E+00	0.00000E+00
0.87319	3.31743E+00	0.00000E+00
0.88566	3.31106E+00	0.00000E+00
0.89850	3.30499E+00	0.00000E+00
0.91171	3.29857E+00	0.00000E+00
0.92532	3.29224E+00	0.00000E+00
0.93934	3.28597E+00	0.00000E+00
0.95379	3.28148E+00	0.00000E+00
0.96869	3.27722E+00	0.00000E+00
0.98407	3.27344E+00	0.00000E+00
0.99994	3.26982E+00	0.00000E+00
1.01633	3.26612E+00	0.00000E+00
1.03327	3.26116E+00	0.00000E+00
1.05078	3.25594E+00	0.00000E+00
1.06890	3.25084E+00	0.00000E+00
1.08765	3.24586E+00	0.00000E+00
1.10708	3.24101E+00	0.00000E+00
1.12721	3.23628E+00	0.00000E+00
1.14808	3.23165E+00	0.00000E+00
1.16974	3.22714E+00	0.00000E+00
1.19224	3.22274E+00	0.00000E+00
1.21561	3.21845E+00	0.00000E+00
1.23993	3.21426E+00	0.00000E+00
1.26523	3.21016E+00	0.00000E+00
1.29159	3.20615E+00	0.00000E+00
1.31907	3.20223E+00	0.00000E+00
1.34775	3.19840E+00	0.00000E+00
1.37770	3.19465E+00	0.00000E+00
1.40901	3.19100E+00	0.00000E+00
1.44177	3.18743E+00	0.00000E+00
1.47610	3.18393E+00	0.00000E+00
1.51210	3.18052E+00	0.00000E+00
1.54991	3.17717E+00	0.00000E+00
1.58965	3.17389E+00	0.00000E+00
1.63148	3.17154E+00	0.00000E+00
1.67558	3.16920E+00	0.00000E+00
1.72212	3.16686E+00	0.00000E+00
1.77132	3.16453E+00	0.00000E+00
1.82342	3.16215E+00	0.00000E+00
1.87868	3.15895E+00	0.00000E+00
