Material: main / Au / Olmon-ts
Optical constants. R. L. Olmon, B. Slovick, T. W. Johnson, D. Shelton, S.-H. Oh, G. D. Boreman, and M. B. Raschke. Optical dielectric function of gold, Phys. Rev. B 86, 235147 (2012) (see Supplemental Material for numerical data)
Comments: Template-stripped gold
wavelength (um)	n	k
3.000E-01	1.667E+00	1.934E+00
3.200E-01	1.754E+00	1.921E+00
3.400E-01	1.759E+00	1.871E+00
3.600E-01	1.696E+00	1.862E+00
3.800E-01	1.645E+00	1.918E+00
4.000E-01	1.645E+00	1.956E+00
4.200E-01	1.621E+00	1.936E+00
4.400E-01	1.556E+00	1.915E+00
4.600E-01	1.466E+00	1.850E+00
4.800E-01	1.227E+00	1.756E+00
5.000E-01	8.463E-01	1.836E+00
5.200E-01	5.507E-01	2.115E+00
5.400E-01	3.953E-01	2.427E+00
5.600E-01	3.111E-01	2.710E+00
5.800E-01	2.587E-01	2.966E+00
6.000E-01	2.228E-01	3.203E+00
6.200E-01	1.973E-01	3.426E+00
6.400E-01	1.789E-01	3.639E+00
6.600E-01	1.656E-01	3.844E+00
6.800E-01	1.561E-01	4.042E+00
7.000E-01	1.494E-01	4.234E+00
7.200E-01	1.450E-01	4.422E+00
7.400E-01	1.424E-01	4.605E+00
7.600E-01	1.411E-01	4.786E+00
7.800E-01	1.410E-01	4.963E+00
8.000E-01	1.419E-01	5.137E+00
8.200E-01	1.435E-01	5.310E+00
8.400E-01	1.457E-01	5.480E+00
8.600E-01	1.486E-01	5.649E+00
8.800E-01	1.518E-01	5.815E+00
9.000E-01	1.555E-01	5.981E+00
9.200E-01	1.596E-01	6.145E+00
9.400E-01	1.639E-01	6.308E+00
9.600E-01	1.686E-01	6.470E+00
9.800E-01	1.734E-01	6.630E+00
1.000E+00	1.786E-01	6.790E+00
1.020E+00	1.839E-01	6.949E+00
1.040E+00	1.894E-01	7.108E+00
1.060E+00	1.951E-01	7.265E+00
1.080E+00	2.010E-01	7.422E+00
1.100E+00	2.070E-01	7.578E+00
1.120E+00	2.132E-01	7.734E+00
1.140E+00	2.195E-01	7.889E+00
1.160E+00	2.260E-01	8.043E+00
1.180E+00	2.325E-01	8.198E+00
1.200E+00	2.392E-01	8.351E+00
1.220E+00	2.461E-01	8.504E+00
1.240E+00	2.530E-01	8.657E+00
1.260E+00	2.600E-01	8.809E+00
1.280E+00	2.672E-01	8.961E+00
1.300E+00	2.744E-01	9.113E+00
1.320E+00	2.813E-01	9.262E+00
1.340E+00	2.878E-01	9.410E+00
1.430E+00	3.214E-01	1.008E+01
1.450E+00	3.284E-01	1.023E+01
1.470E+00	3.355E-01	1.037E+01
1.490E+00	3.426E-01	1.051E+01
1.510E+00	3.498E-01	1.066E+01
1.530E+00	3.571E-01	1.080E+01
1.550E+00	3.646E-01	1.094E+01
1.570E+00	3.721E-01	1.109E+01
1.590E+00	3.797E-01	1.123E+01
1.610E+00	3.874E-01	1.137E+01
1.630E+00	3.952E-01	1.151E+01
1.650E+00	4.031E-01	1.166E+01
1.670E+00	4.112E-01	1.180E+01
1.690E+00	4.193E-01	1.194E+01
1.710E+00	4.276E-01	1.208E+01
1.730E+00	4.359E-01	1.222E+01
1.750E+00	4.444E-01	1.236E+01
1.770E+00	4.531E-01	1.250E+01
1.790E+00	4.618E-01	1.264E+01
1.810E+00	4.708E-01	1.278E+01
1.830E+00	4.798E-01	1.292E+01
1.850E+00	4.890E-01	1.306E+01
1.870E+00	4.983E-01	1.320E+01
1.890E+00	5.078E-01	1.334E+01
1.910E+00	5.175E-01	1.348E+01
1.930E+00	5.273E-01	1.362E+01
1.950E+00	5.373E-01	1.375E+01
1.970E+00	5.474E-01	1.389E+01
1.990E+00	5.578E-01	1.403E+01
2.007E+00	5.667E-01	1.415E+01
2.025E+00	5.771E-01	1.428E+01
2.045E+00	5.878E-01	1.442E+01
2.064E+00	5.989E-01	1.456E+01
2.084E+00	6.102E-01	1.471E+01
2.104E+00	6.219E-01	1.485E+01
2.125E+00	6.339E-01	1.500E+01
2.146E+00	6.463E-01	1.515E+01
2.168E+00	6.591E-01	1.531E+01
2.190E+00	6.722E-01	1.546E+01
2.205E+00	6.812E-01	1.557E+01
2.227E+00	6.950E-01	1.573E+01
2.243E+00	7.044E-01	1.584E+01
2.266E+00	7.190E-01	1.601E+01
2.282E+00	7.289E-01	1.613E+01
2.307E+00	7.442E-01	1.630E+01
2.323E+00	7.547E-01	1.642E+01
2.348E+00	7.708E-01	1.660E+01
2.365E+00	7.819E-01	1.672E+01
2.383E+00	7.932E-01	1.684E+01
2.409E+00	8.106E-01	1.703E+01
2.427E+00	8.225E-01	1.716E+01
2.446E+00	8.347E-01	1.729E+01
2.464E+00	8.472E-01	1.743E+01
2.483E+00	8.599E-01	1.756E+01
2.502E+00	8.730E-01	1.770E+01
2.522E+00	8.863E-01	1.784E+01
2.542E+00	8.999E-01	1.798E+01
2.562E+00	9.139E-01	1.812E+01
2.582E+00	9.282E-01	1.826E+01
2.603E+00	9.428E-01	1.841E+01
2.624E+00	9.578E-01	1.856E+01
2.645E+00	9.732E-01	1.871E+01
2.667E+00	9.889E-01	1.887E+01
2.689E+00	1.005E+00	1.903E+01
2.712E+00	1.022E+00	1.918E+01
2.735E+00	1.038E+00	1.935E+01
2.758E+00	1.056E+00	1.951E+01
2.782E+00	1.074E+00	1.968E+01
2.806E+00	1.092E+00	1.985E+01
2.830E+00	1.111E+00	2.002E+01
2.855E+00	1.130E+00	2.020E+01
2.881E+00	1.149E+00	2.038E+01
2.906E+00	1.170E+00	2.056E+01
2.933E+00	1.190E+00	2.075E+01
2.959E+00	1.212E+00	2.094E+01
2.987E+00	1.234E+00	2.113E+01
3.015E+00	1.256E+00	2.132E+01
3.043E+00	1.279E+00	2.152E+01
3.072E+00	1.303E+00	2.173E+01
3.101E+00	1.327E+00	2.193E+01
3.131E+00	1.352E+00	2.215E+01
3.162E+00	1.378E+00	2.236E+01
3.193E+00	1.405E+00	2.258E+01
3.224E+00	1.432E+00	2.280E+01
3.257E+00	1.460E+00	2.303E+01
3.290E+00	1.489E+00	2.326E+01
3.324E+00	1.519E+00	2.350E+01
3.358E+00	1.550E+00	2.374E+01
3.393E+00	1.582E+00	2.399E+01
3.429E+00	1.614E+00	2.424E+01
3.466E+00	1.648E+00	2.449E+01
3.503E+00	1.683E+00	2.475E+01
3.542E+00	1.719E+00	2.502E+01
3.581E+00	1.756E+00	2.529E+01
3.621E+00	1.794E+00	2.557E+01
3.662E+00	1.833E+00	2.586E+01
3.704E+00	1.874E+00	2.615E+01
3.746E+00	1.916E+00	2.645E+01
3.790E+00	1.960E+00	2.675E+01
3.835E+00	2.005E+00	2.706E+01
3.881E+00	2.052E+00	2.738E+01
3.928E+00	2.100E+00	2.771E+01
3.976E+00	2.150E+00	2.804E+01
4.026E+00	2.202E+00	2.838E+01
4.076E+00	2.255E+00	2.873E+01
4.128E+00	2.311E+00	2.909E+01
4.181E+00	2.369E+00	2.946E+01
4.236E+00	2.429E+00	2.983E+01
4.292E+00	2.491E+00	3.022E+01
4.350E+00	2.555E+00	3.061E+01
4.409E+00	2.622E+00	3.102E+01
4.470E+00	2.692E+00	3.144E+01
4.532E+00	2.765E+00	3.186E+01
4.597E+00	2.840E+00	3.230E+01
4.663E+00	2.919E+00	3.275E+01
4.731E+00	3.000E+00	3.322E+01
4.801E+00	3.086E+00	3.369E+01
4.873E+00	3.174E+00	3.418E+01
4.947E+00	3.267E+00	3.469E+01
5.024E+00	3.364E+00	3.520E+01
5.103E+00	3.465E+00	3.574E+01
5.185E+00	3.571E+00	3.629E+01
5.269E+00	3.681E+00	3.685E+01
5.356E+00	3.797E+00	3.744E+01
5.446E+00	3.918E+00	3.804E+01
5.539E+00	4.044E+00	3.866E+01
5.636E+00	4.177E+00	3.930E+01
5.736E+00	4.317E+00	3.997E+01
5.839E+00	4.463E+00	4.065E+01
5.946E+00	4.617E+00	4.136E+01
6.057E+00	4.778E+00	4.209E+01
6.173E+00	4.948E+00	4.285E+01
6.292E+00	5.127E+00	4.363E+01
6.417E+00	5.316E+00	4.445E+01
6.547E+00	5.515E+00	4.529E+01
6.682E+00	5.725E+00	4.616E+01
6.822E+00	5.947E+00	4.707E+01
6.969E+00	6.182E+00	4.801E+01
7.122E+00	6.430E+00	4.899E+01
7.282E+00	6.693E+00	5.001E+01
7.450E+00	6.972E+00	5.107E+01
7.625E+00	7.269E+00	5.217E+01
7.809E+00	7.584E+00	5.332E+01
8.001E+00	7.919E+00	5.453E+01
8.204E+00	8.275E+00	5.578E+01
8.417E+00	8.655E+00	5.709E+01
8.642E+00	9.061E+00	5.846E+01
8.878E+00	9.495E+00	5.990E+01
9.128E+00	9.958E+00	6.140E+01
9.393E+00	1.046E+01	6.298E+01
9.673E+00	1.099E+01	6.464E+01
9.971E+00	1.156E+01	6.638E+01
1.029E+01	1.217E+01	6.821E+01
1.063E+01	1.284E+01	7.015E+01
1.099E+01	1.355E+01	7.219E+01
1.137E+01	1.432E+01	7.434E+01
1.178E+01	1.515E+01	7.662E+01
1.223E+01	1.605E+01	7.904E+01
1.271E+01	1.703E+01	8.162E+01
1.323E+01	1.808E+01	8.435E+01
1.379E+01	1.923E+01	8.727E+01
1.440E+01	2.048E+01	9.038E+01
1.507E+01	2.184E+01	9.372E+01
1.581E+01	2.332E+01	9.731E+01
1.662E+01	2.494E+01	1.012E+02
1.752E+01	2.670E+01	1.054E+02
1.852E+01	2.863E+01	1.099E+02
1.964E+01	3.074E+01	1.149E+02
2.091E+01	3.304E+01	1.203E+02
2.235E+01	3.555E+01	1.264E+02
2.400E+01	3.830E+01	1.331E+02
