Material: main / Au / Olmon-sc
Optical constants. R. L. Olmon, B. Slovick, T. W. Johnson, D. Shelton, S.-H. Oh, G. D. Boreman, and M. B. Raschke. Optical dielectric function of gold, Phys. Rev. B 86, 235147 (2012) (see Supplemental Material for numerical data)
Comments: Single-crystal gold
wavelength (um)	n	k
3.000E-01	1.562E+00	1.827E+00
3.200E-01	1.642E+00	1.825E+00
3.400E-01	1.650E+00	1.784E+00
3.600E-01	1.595E+00	1.778E+00
3.800E-01	1.550E+00	1.832E+00
4.000E-01	1.554E+00	1.869E+00
4.200E-01	1.533E+00	1.850E+00
4.400E-01	1.473E+00	1.834E+00
4.600E-01	1.399E+00	1.774E+00
4.800E-01	1.179E+00	1.677E+00
5.000E-01	8.181E-01	1.745E+00
5.200E-01	5.376E-01	2.007E+00
5.400E-01	3.897E-01	2.298E+00
5.600E-01	3.078E-01	2.563E+00
5.800E-01	2.553E-01	2.803E+00
6.000E-01	2.184E-01	3.026E+00
6.200E-01	1.916E-01	3.237E+00
6.400E-01	1.717E-01	3.438E+00
6.600E-01	1.570E-01	3.632E+00
6.800E-01	1.460E-01	3.819E+00
7.000E-01	1.380E-01	4.002E+00
7.200E-01	1.322E-01	4.180E+00
7.400E-01	1.282E-01	4.354E+00
7.600E-01	1.257E-01	4.525E+00
7.800E-01	1.243E-01	4.694E+00
8.000E-01	1.238E-01	4.859E+00
8.200E-01	1.241E-01	5.023E+00
8.400E-01	1.251E-01	5.185E+00
8.600E-01	1.266E-01	5.345E+00
8.800E-01	1.286E-01	5.503E+00
9.000E-01	1.309E-01	5.660E+00
9.200E-01	1.337E-01	5.816E+00
9.400E-01	1.367E-01	5.970E+00
9.600E-01	1.400E-01	6.124E+00
9.800E-01	1.435E-01	6.276E+00
1.000E+00	1.472E-01	6.428E+00
1.020E+00	1.511E-01	6.579E+00
1.040E+00	1.552E-01	6.729E+00
1.060E+00	1.594E-01	6.878E+00
1.080E+00	1.638E-01	7.027E+00
1.100E+00	1.683E-01	7.175E+00
1.120E+00	1.729E-01	7.323E+00
1.140E+00	1.776E-01	7.470E+00
1.160E+00	1.824E-01	7.616E+00
1.180E+00	1.874E-01	7.762E+00
1.200E+00	1.924E-01	7.908E+00
1.220E+00	1.975E-01	8.053E+00
1.240E+00	2.027E-01	8.198E+00
1.260E+00	2.079E-01	8.342E+00
1.280E+00	2.133E-01	8.486E+00
1.300E+00	2.187E-01	8.630E+00
1.320E+00	2.241E-01	8.773E+00
1.340E+00	2.297E-01	8.916E+00
1.430E+00	2.553E-01	9.556E+00
1.450E+00	2.611E-01	9.698E+00
1.470E+00	2.678E-01	9.825E+00
1.490E+00	2.747E-01	9.952E+00
1.510E+00	2.818E-01	1.008E+01
1.530E+00	2.891E-01	1.020E+01
1.550E+00	2.965E-01	1.033E+01
1.570E+00	3.042E-01	1.045E+01
1.590E+00	3.120E-01	1.057E+01
1.610E+00	3.201E-01	1.070E+01
1.630E+00	3.284E-01	1.082E+01
1.650E+00	3.369E-01	1.094E+01
1.670E+00	3.457E-01	1.106E+01
1.690E+00	3.546E-01	1.118E+01
1.710E+00	3.639E-01	1.130E+01
1.730E+00	3.733E-01	1.142E+01
1.750E+00	3.831E-01	1.153E+01
1.770E+00	3.931E-01	1.165E+01
1.790E+00	4.034E-01	1.177E+01
1.810E+00	4.140E-01	1.188E+01
1.830E+00	4.249E-01	1.200E+01
1.850E+00	4.361E-01	1.211E+01
1.870E+00	4.476E-01	1.223E+01
1.890E+00	4.595E-01	1.234E+01
1.910E+00	4.717E-01	1.246E+01
1.930E+00	4.842E-01	1.257E+01
1.950E+00	4.971E-01	1.268E+01
1.970E+00	5.104E-01	1.279E+01
1.990E+00	5.241E-01	1.290E+01
2.007E+00	5.345E-01	1.300E+01
2.025E+00	5.443E-01	1.313E+01
2.045E+00	5.544E-01	1.325E+01
2.064E+00	5.647E-01	1.338E+01
2.084E+00	5.754E-01	1.351E+01
2.104E+00	5.864E-01	1.364E+01
2.125E+00	5.977E-01	1.378E+01
2.146E+00	6.093E-01	1.392E+01
2.168E+00	6.213E-01	1.406E+01
2.190E+00	6.336E-01	1.420E+01
2.205E+00	6.421E-01	1.430E+01
2.227E+00	6.550E-01	1.445E+01
2.243E+00	6.639E-01	1.455E+01
2.266E+00	6.775E-01	1.470E+01
2.282E+00	6.869E-01	1.480E+01
2.307E+00	7.012E-01	1.496E+01
2.323E+00	7.110E-01	1.507E+01
2.348E+00	7.262E-01	1.524E+01
2.365E+00	7.365E-01	1.535E+01
2.383E+00	7.471E-01	1.546E+01
2.409E+00	7.634E-01	1.563E+01
2.427E+00	7.745E-01	1.575E+01
2.446E+00	7.860E-01	1.587E+01
2.464E+00	7.976E-01	1.599E+01
2.483E+00	8.096E-01	1.611E+01
2.502E+00	8.218E-01	1.624E+01
2.522E+00	8.342E-01	1.636E+01
2.542E+00	8.470E-01	1.649E+01
2.562E+00	8.600E-01	1.662E+01
2.582E+00	8.734E-01	1.675E+01
2.603E+00	8.871E-01	1.689E+01
2.624E+00	9.011E-01	1.703E+01
2.645E+00	9.154E-01	1.716E+01
2.667E+00	9.301E-01	1.730E+01
2.689E+00	9.451E-01	1.745E+01
2.712E+00	9.605E-01	1.759E+01
2.735E+00	9.763E-01	1.774E+01
2.758E+00	9.924E-01	1.789E+01
2.782E+00	1.009E+00	1.804E+01
2.806E+00	1.026E+00	1.820E+01
2.830E+00	1.043E+00	1.836E+01
2.855E+00	1.061E+00	1.852E+01
2.881E+00	1.080E+00	1.868E+01
2.906E+00	1.098E+00	1.885E+01
2.933E+00	1.118E+00	1.902E+01
2.959E+00	1.138E+00	1.919E+01
2.987E+00	1.158E+00	1.936E+01
3.015E+00	1.179E+00	1.954E+01
3.043E+00	1.200E+00	1.972E+01
3.072E+00	1.222E+00	1.991E+01
3.101E+00	1.245E+00	2.010E+01
3.131E+00	1.268E+00	2.029E+01
3.162E+00	1.292E+00	2.048E+01
3.193E+00	1.317E+00	2.068E+01
3.224E+00	1.342E+00	2.088E+01
3.257E+00	1.368E+00	2.109E+01
3.290E+00	1.395E+00	2.130E+01
3.324E+00	1.422E+00	2.152E+01
3.358E+00	1.451E+00	2.174E+01
3.393E+00	1.480E+00	2.196E+01
3.429E+00	1.510E+00	2.219E+01
3.466E+00	1.541E+00	2.242E+01
3.503E+00	1.573E+00	2.266E+01
3.542E+00	1.606E+00	2.290E+01
3.581E+00	1.640E+00	2.315E+01
3.621E+00	1.676E+00	2.340E+01
3.662E+00	1.712E+00	2.366E+01
3.704E+00	1.749E+00	2.393E+01
3.746E+00	1.788E+00	2.420E+01
3.790E+00	1.828E+00	2.447E+01
3.835E+00	1.869E+00	2.475E+01
3.881E+00	1.912E+00	2.504E+01
3.928E+00	1.956E+00	2.534E+01
3.976E+00	2.002E+00	2.564E+01
4.026E+00	2.049E+00	2.595E+01
4.076E+00	2.098E+00	2.627E+01
4.128E+00	2.149E+00	2.659E+01
4.181E+00	2.201E+00	2.692E+01
4.236E+00	2.256E+00	2.726E+01
4.292E+00	2.312E+00	2.761E+01
4.350E+00	2.371E+00	2.797E+01
4.409E+00	2.432E+00	2.834E+01
4.470E+00	2.495E+00	2.871E+01
4.532E+00	2.560E+00	2.910E+01
4.597E+00	2.628E+00	2.950E+01
4.663E+00	2.699E+00	2.990E+01
4.731E+00	2.773E+00	3.032E+01
4.801E+00	2.849E+00	3.075E+01
4.873E+00	2.929E+00	3.119E+01
4.947E+00	3.012E+00	3.165E+01
5.024E+00	3.098E+00	3.212E+01
5.103E+00	3.189E+00	3.260E+01
5.185E+00	3.283E+00	3.309E+01
5.269E+00	3.381E+00	3.360E+01
5.356E+00	3.483E+00	3.413E+01
5.446E+00	3.590E+00	3.467E+01
5.539E+00	3.702E+00	3.523E+01
5.636E+00	3.820E+00	3.580E+01
5.736E+00	3.942E+00	3.640E+01
5.839E+00	4.070E+00	3.701E+01
5.946E+00	4.205E+00	3.765E+01
6.057E+00	4.346E+00	3.831E+01
6.173E+00	4.494E+00	3.899E+01
6.292E+00	4.649E+00	3.969E+01
6.417E+00	4.812E+00	4.042E+01
6.547E+00	4.984E+00	4.117E+01
6.682E+00	5.164E+00	4.195E+01
6.822E+00	5.354E+00	4.276E+01
6.969E+00	5.554E+00	4.361E+01
7.122E+00	5.764E+00	4.448E+01
7.282E+00	5.987E+00	4.539E+01
7.450E+00	6.221E+00	4.634E+01
7.625E+00	6.469E+00	4.732E+01
7.809E+00	6.731E+00	4.835E+01
8.001E+00	7.008E+00	4.942E+01
8.204E+00	7.302E+00	5.053E+01
8.417E+00	7.613E+00	5.170E+01
8.642E+00	7.942E+00	5.292E+01
8.878E+00	8.292E+00	5.420E+01
9.128E+00	8.664E+00	5.553E+01
9.393E+00	9.058E+00	5.694E+01
9.673E+00	9.478E+00	5.841E+01
9.971E+00	9.925E+00	5.996E+01
1.029E+01	1.040E+01	6.159E+01
1.063E+01	1.091E+01	6.331E+01
1.099E+01	1.145E+01	6.513E+01
1.137E+01	1.202E+01	6.705E+01
1.178E+01	1.264E+01	6.908E+01
1.223E+01	1.330E+01	7.125E+01
1.271E+01	1.400E+01	7.355E+01
1.323E+01	1.475E+01	7.601E+01
1.379E+01	1.555E+01	7.863E+01
1.440E+01	1.640E+01	8.146E+01
1.507E+01	1.732E+01	8.449E+01
1.581E+01	1.829E+01	8.778E+01
1.662E+01	1.934E+01	9.134E+01
1.752E+01	2.045E+01	9.523E+01
1.852E+01	2.163E+01	9.950E+01
1.964E+01	2.288E+01	1.042E+02
2.091E+01	2.421E+01	1.095E+02
2.235E+01	2.562E+01	1.154E+02
2.400E+01	2.710E+01	1.221E+02
