Material: main / Au / Windt
Optical constants. D. L. Windt, W. C. Cash, M. Scott, P. Arendt, B. Newnam, R. F. Fisher, A. B. Swartzlander. Optical constants for thin films of Ti, Zr, Nb, Mo, Ru, Rh, Pd, Ag, Hf, Ta, W, Re, Ir, Os, Pt, and Au from 24 Å to 1216 Å, Appl. Opt. 27, 246-278 (1988)
wavelength (um)	n	k
0.00236	0.99512	0.00412
0.00316	0.99582	0.00420
0.00447	0.99310	0.00954
0.00676	0.9856	0.00840
0.01140	0.9300	0.0217
0.01355	0.900	0.0502
0.01714	0.865	0.0890
0.02430	0.848	0.243
0.02563	0.836	0.200
0.03038	0.815	0.273
0.03270	0.798	0.293
0.03568	0.790	0.347
0.03793	0.776	0.461
0.04059	0.889	0.568
0.04478	0.846	0.482
0.04607	0.826	0.531
0.04895	0.808	0.538
0.05391	0.858	0.749
0.05843	1.04	0.866
0.06163	1.26	0.880
0.06714	1.10	0.711
0.07185	1.02	0.692
0.07359	1.12	0.733
0.07437	1.11	0.768
0.08345	1.05	0.799
0.08780	1.08	0.787
0.09198	1.12	0.830
0.09321	1.11	0.812
0.09888	1.17	0.796
0.10258	1.12	0.762
0.10482	1.13	0.805
0.10667	1.22	0.809
0.10857	1.22	0.806
0.11350	1.16	0.788
0.12007	1.18	0.844
0.12157	1.25	0.870
