Material: main / BiFeO3 / Kumar
Optical constants. A. Kumar, R. C. Rai, N. J. Podraza, S. Denev, M. Ramirez, Y.-H. Chu, L. W. Martin, J. Ihlefeld, T. Heeg, J. Schubert, D. G. Schlom, J. Orenstein, R. Ramesh, R. W. Collins, J. L. Musfeldt and V. Gopalan. Linear and nonlinear optical properties of BiFeO3, Appl. Phys. Lett. 92, 121915 (2008) (Numerical data kindly provided by Ryan Haislmaier and Venkatraman Gopalan)
Comments: 25 nm BiFeO3 film grown on (100)SrTiO3 substrate.
Specs: {"temperature": "273 K"}
wavelength (um)	n	k
0.19706	2.19739	1.55945
0.20022	2.20337	1.53628
0.20337	2.20654	1.51711
0.20653	2.20761	1.50212
0.20969	2.20726	1.49139
0.21285	2.20615	1.48492
0.21601	2.20492	1.48263
0.21918	2.20416	1.48440
0.22234	2.20443	1.49003
0.22551	2.20626	1.49927
0.22867	2.21014	1.51181
0.23184	2.21652	1.52730
0.23501	2.22580	1.54535
0.23818	2.23834	1.56551
0.24135	2.25444	1.58729
0.24452	2.27435	1.61019
0.24769	2.29825	1.63363
0.25087	2.32626	1.65705
0.25404	2.35842	1.67983
0.25722	2.39468	1.70137
0.26039	2.43492	1.72105
0.26357	2.47894	1.73825
0.26674	2.52641	1.75239
0.26992	2.57695	1.76292
0.27310	2.63005	1.76933
0.27628	2.68514	1.77120
0.27946	2.74157	1.76818
0.28264	2.79860	1.76006
0.28582	2.85548	1.74672
0.28900	2.91142	1.72820
0.29218	2.96565	1.70466
0.29536	3.01744	1.67640
0.29854	3.06614	1.64387
0.30172	3.11115	1.60759
0.30490	3.15203	1.56818
0.30808	3.18844	1.52633
0.31127	3.22018	1.48274
0.31445	3.24716	1.43812
0.31763	3.26942	1.39315
0.32081	3.28709	1.34848
0.32400	3.30041	1.30471
0.32718	3.30966	1.26235
0.33036	3.31519	1.22188
0.33355	3.31739	1.18367
0.33673	3.31667	1.14807
0.33991	3.31346	1.11535
0.34310	3.30820	1.08573
0.34628	3.30134	1.05939
0.34946	3.29336	1.03647
0.35264	3.28473	1.01706
0.35583	3.27595	1.00123
0.35901	3.26755	0.98898
0.36219	3.26009	0.98028
0.36538	3.25416	0.97502
0.36856	3.25039	0.97301
0.37174	3.24945	0.97394
0.37492	3.25199	0.97736
0.37810	3.25868	0.98265
0.38129	3.27011	0.98901
0.38447	3.28674	0.99538
0.38765	3.30879	1.00054
0.39083	3.33622	1.00310
0.39401	3.36854	1.00160
0.39719	3.40485	0.99466
0.40037	3.44379	0.98112
0.40355	3.48364	0.96026
0.40673	3.52248	0.93190
0.40991	3.55838	0.89645
0.41309	3.58967	0.85491
0.41627	3.61512	0.80870
0.41945	3.63399	0.75945
0.42263	3.64610	0.70884
0.42581	3.65172	0.65835
0.42899	3.65144	0.60925
0.43216	3.64608	0.56244
0.43534	3.63651	0.51857
0.43852	3.62359	0.47798
0.44170	3.60815	0.44083
0.44487	3.59089	0.40711
0.44805	3.57242	0.37672
0.45122	3.55325	0.34946
0.45440	3.53380	0.32514
0.45758	3.51442	0.30349
0.46075	3.49538	0.28430
0.46393	3.47692	0.26729
0.46710	3.45922	0.25223
0.47028	3.44245	0.23886
0.47345	3.42672	0.22693
0.47662	3.41215	0.21617
0.47980	3.39880	0.20630
0.48297	3.38667	0.19701
0.48614	3.37574	0.18801
0.48931	3.36589	0.17899
0.49249	3.35693	0.16969
0.49566	3.34860	0.15987
0.49883	3.34058	0.14941
0.50200	3.33251	0.13829
0.50517	3.32406	0.12662
0.50834	3.31498	0.11459
0.51151	3.30509	0.10249
0.51468	3.29434	0.09060
0.51785	3.28278	0.07919
0.52102	3.27052	0.06848
0.52419	3.25774	0.05862
0.52736	3.24463	0.04969
0.53053	3.23134	0.04171
0.53370	3.21804	0.03467
0.53687	3.20486	0.02851
0.54004	3.19188	0.02318
0.54321	3.17920	0.01860
0.54637	3.16686	0.01469
0.54954	3.15489	0.01138
0.55271	3.14333	0.00862
0.55587	3.13218	0.00633
0.55904	3.12144	0.00446
0.56221	3.11113	0.00298
0.56537	3.10123	0.00184
0.56854	3.09175	9.94E-04
0.57171	3.08269	4.24E-04
0.57487	3.07406	1.01E-04
0.57804	3.06589	0
0.58120	3.05823	0
0.58437	3.05098	0
0.58753	3.04406	0
0.59070	3.03743	0
0.59386	3.03106	0
0.59703	3.02494	0
0.60019	3.01904	0
0.60336	3.01335	0
0.60652	3.00785	0
0.60969	3.00253	0
0.61285	2.99738	0
0.61601	2.99239	0
0.61918	2.98755	0
0.62234	2.98285	0
0.62550	2.97829	0
0.62867	2.97386	0
0.63183	2.96955	0
0.63499	2.96535	0
0.63816	2.96127	0
0.64132	2.95730	0
0.64448	2.95342	0
0.64765	2.94965	0
0.65081	2.94597	0
0.65397	2.94237	0
0.65713	2.93887	0
0.66029	2.93545	0
0.66346	2.93210	0
0.66662	2.92884	0
0.66978	2.92565	0
0.67294	2.92253	0
0.67610	2.91948	0
0.67926	2.91650	0
0.68243	2.91358	0
0.68559	2.91072	0
0.68875	2.90793	0
0.69191	2.90519	0
0.69507	2.90251	0
0.69823	2.89988	0
0.70139	2.89731	0
0.70455	2.89478	0
0.70771	2.89231	0
0.71087	2.88989	0
0.71403	2.88751	0
0.71719	2.88518	0
0.72035	2.88290	0
0.72351	2.88065	0
0.72667	2.87845	0
0.72983	2.87629	0
0.73299	2.87417	0
0.73615	2.87209	0
0.73931	2.87004	0
0.74247	2.86803	0
0.74563	2.86606	0
0.74878	2.86412	0
0.75194	2.86221	0
0.75510	2.86034	0
0.75826	2.85850	0
0.76141	2.85669	0
0.76457	2.85492	0
0.76773	2.85317	0
0.77088	2.85145	0
0.77404	2.84976	0
0.77720	2.84809	0
0.78035	2.84646	0
0.78350	2.84485	0
0.78666	2.84327	0
0.78981	2.84171	0
0.79297	2.84017	0
0.79612	2.83866	0
0.79927	2.83718	0
0.80242	2.83571	0
0.80558	2.83427	0
0.80873	2.83285	0
0.81188	2.83146	0
0.81503	2.83008	0
0.81818	2.82872	0
0.82133	2.82739	0
0.82447	2.82607	0
0.82762	2.82478	0
0.83077	2.82350	0
0.83391	2.82224	0
0.83706	2.82100	0
0.84020	2.81978	0
0.84335	2.81858	0
0.84649	2.81739	0
0.84963	2.81622	0
0.85277	2.81506	0
0.85591	2.81393	0
0.85905	2.81280	0
0.86219	2.81170	0
0.86532	2.81061	0
0.86846	2.80953	0
0.87159	2.80847	0
0.87473	2.80742	0
0.87786	2.80639	0
0.88099	2.80537	0
0.88412	2.80436	0
0.88725	2.80337	0
0.89038	2.80239	0
0.89350	2.80143	0
0.89662	2.80048	0
0.89975	2.79954	0
0.90287	2.79861	0
0.90599	2.79769	0
0.90910	2.79679	0
0.91222	2.79589	0
0.91534	2.79501	0
0.91845	2.79414	0
0.92156	2.79329	0
0.92467	2.79244	0
0.92777	2.79160	0
0.93088	2.79078	0
0.93398	2.78996	0
0.93708	2.78915	0
0.94018	2.78836	0
0.94327	2.78757	0
0.94637	2.78680	0
0.94946	2.78603	0
0.95255	2.78527	0
0.95563	2.78452	0
0.95872	2.78379	0
0.96180	2.78306	0
0.96488	2.78233	0
0.96795	2.78162	0
0.97102	2.78092	0
0.97409	2.78022	0
0.97716	2.77954	0
0.98022	2.77886	0
0.98328	2.77819	0
0.98634	2.77753	0
0.98940	2.77687	0
0.99245	2.77623	0
0.99549	2.77559	0
0.99854	2.77495	0
1.0123	2.77217	0
1.0192	2.77084	0
1.0261	2.76953	0
1.0329	2.76826	0
1.0398	2.76702	0
1.0466	2.76580	0
1.0535	2.76461	0
1.0603	2.76345	0
1.0672	2.76231	0
1.0740	2.76120	0
1.0809	2.76011	0
1.0877	2.75905	0
1.0946	2.75800	0
1.1015	2.75698	0
1.1083	2.75598	0
1.1152	2.75500	0
1.1220	2.75404	0
1.1289	2.75310	0
1.1357	2.75218	0
1.1426	2.75128	0
1.1494	2.75040	0
1.1563	2.74953	0
1.1632	2.74868	0
1.1700	2.74784	0
1.1769	2.74703	0
1.1837	2.74622	0
1.1906	2.74544	0
1.1974	2.74467	0
1.2043	2.74391	0
1.2112	2.74317	0
1.2180	2.74244	0
1.2249	2.74172	0
1.2317	2.74102	0
1.2386	2.74033	0
1.2455	2.73965	0
1.2523	2.73898	0
1.2592	2.73833	0
1.2661	2.73769	0
1.2729	2.73706	0
1.2798	2.73644	0
1.2867	2.73583	0
1.2935	2.73523	0
1.3004	2.73464	0
1.3073	2.73406	0
1.3141	2.73349	0
1.3210	2.73293	0
1.3279	2.73238	0
1.3347	2.73184	0
1.3416	2.73131	0
1.3485	2.73078	0
1.3554	2.73027	0
1.3622	2.72976	0
1.3691	2.72926	0
1.3760	2.72877	0
1.3829	2.72829	0
1.3897	2.72782	0
1.3966	2.72735	0
1.4035	2.72689	0
1.4104	2.72643	0
1.4172	2.72599	0
1.4241	2.72555	0
1.4310	2.72511	0
1.4379	2.72469	0
1.4448	2.72427	0
1.4517	2.72386	0
1.4586	2.72345	0
1.4654	2.72305	0
1.4723	2.72265	0
1.4792	2.72226	0
1.4861	2.72188	0
1.4930	2.72150	0
1.4999	2.72113	0
1.5068	2.72076	0
1.5137	2.72040	0
1.5206	2.72004	0
1.5275	2.71969	0
1.5344	2.71934	0
1.5413	2.71900	0
1.5482	2.71866	0
1.5551	2.71833	0
1.5620	2.71800	0
1.5689	2.71768	0
1.5758	2.71736	0
1.5827	2.71704	0
1.5897	2.71673	0
1.5966	2.71643	0
1.6035	2.71612	0
1.6104	2.71583	0
1.6173	2.71553	0
1.6242	2.71524	0
1.6312	2.71495	0
1.6381	2.71467	0
1.6450	2.71439	0
1.6519	2.71412	0
1.6589	2.71384	0
1.6658	2.71358	0
