Material: main / CdSe / Ninomiya-e
Optical constants. S. Ninomiya and S. Adachi. Optical properties of cubic and hexagonal CdSe, J. Appl. Phys. 78, 4681-4689 (1995)[Calculation script (Python)]
Comments: Hexagonal CdSe. Fit of author's experimental data to a simplified model of the interband transitions (MDF). Extraordinary ray (e), room temperature.
wavelength (um)	n	k
2.3393e-01	1.6539e+00	2.1386e+00
2.3466e-01	1.6777e+00	2.1477e+00
2.3539e-01	1.7021e+00	2.1563e+00
2.3613e-01	1.7272e+00	2.1644e+00
2.3687e-01	1.7529e+00	2.1719e+00
2.3762e-01	1.7791e+00	2.1787e+00
2.3837e-01	1.8060e+00	2.1849e+00
2.3912e-01	1.8335e+00	2.1905e+00
2.3988e-01	1.8615e+00	2.1952e+00
2.4065e-01	1.8900e+00	2.1992e+00
2.4142e-01	1.9190e+00	2.2024e+00
2.4219e-01	1.9485e+00	2.2047e+00
2.4297e-01	1.9784e+00	2.2061e+00
2.4376e-01	2.0087e+00	2.2066e+00
2.4455e-01	2.0394e+00	2.2061e+00
2.4534e-01	2.0703e+00	2.2046e+00
2.4614e-01	2.1015e+00	2.2020e+00
2.4695e-01	2.1329e+00	2.1984e+00
2.4776e-01	2.1644e+00	2.1937e+00
2.4858e-01	2.1960e+00	2.1879e+00
2.4940e-01	2.2276e+00	2.1809e+00
2.5022e-01	2.2592e+00	2.1728e+00
2.5106e-01	2.2906e+00	2.1635e+00
2.5190e-01	2.3219e+00	2.1531e+00
2.5274e-01	2.3530e+00	2.1415e+00
2.5359e-01	2.3837e+00	2.1288e+00
2.5444e-01	2.4140e+00	2.1149e+00
2.5531e-01	2.4439e+00	2.0999e+00
2.5617e-01	2.4732e+00	2.0838e+00
2.5704e-01	2.5019e+00	2.0667e+00
2.5792e-01	2.5300e+00	2.0485e+00
2.5881e-01	2.5574e+00	2.0293e+00
2.5970e-01	2.5840e+00	2.0091e+00
2.6060e-01	2.6097e+00	1.9881e+00
2.6150e-01	2.6346e+00	1.9662e+00
2.6241e-01	2.6586e+00	1.9435e+00
2.6332e-01	2.6816e+00	1.9201e+00
2.6425e-01	2.7035e+00	1.8961e+00
2.6518e-01	2.7245e+00	1.8714e+00
2.6611e-01	2.7444e+00	1.8462e+00
2.6705e-01	2.7632e+00	1.8206e+00
2.6800e-01	2.7810e+00	1.7945e+00
2.6896e-01	2.7976e+00	1.7682e+00
2.6992e-01	2.8132e+00	1.7415e+00
2.7089e-01	2.8276e+00	1.7147e+00
2.7186e-01	2.8410e+00	1.6877e+00
2.7285e-01	2.8534e+00	1.6607e+00
2.7384e-01	2.8646e+00	1.6337e+00
2.7484e-01	2.8749e+00	1.6067e+00
2.7584e-01	2.8841e+00	1.5798e+00
2.7685e-01	2.8924e+00	1.5530e+00
2.7787e-01	2.8997e+00	1.5265e+00
2.7890e-01	2.9061e+00	1.5001e+00
2.7993e-01	2.9117e+00	1.4741e+00
2.8098e-01	2.9164e+00	1.4483e+00
2.8203e-01	2.9203e+00	1.4229e+00
2.8308e-01	2.9234e+00	1.3978e+00
2.8415e-01	2.9257e+00	1.3732e+00
2.8522e-01	2.9274e+00	1.3489e+00
2.8631e-01	2.9284e+00	1.3251e+00
2.8740e-01	2.9288e+00	1.3017e+00
2.8850e-01	2.9286e+00	1.2788e+00
2.8960e-01	2.9279e+00	1.2564e+00
2.9072e-01	2.9266e+00	1.2344e+00
2.9184e-01	2.9249e+00	1.2130e+00
2.9298e-01	2.9227e+00	1.1920e+00
2.9412e-01	2.9200e+00	1.1715e+00
2.9527e-01	2.9170e+00	1.1515e+00
2.9643e-01	2.9137e+00	1.1320e+00
2.9760e-01	2.9100e+00	1.1130e+00
2.9878e-01	2.9060e+00	1.0945e+00
2.9997e-01	2.9017e+00	1.0764e+00
3.0116e-01	2.8972e+00	1.0589e+00
3.0237e-01	2.8924e+00	1.0418e+00
3.0359e-01	2.8874e+00	1.0252e+00
3.0481e-01	2.8823e+00	1.0090e+00
3.0605e-01	2.8769e+00	9.9332e-01
3.0730e-01	2.8715e+00	9.7805e-01
3.0855e-01	2.8659e+00	9.6321e-01
3.0982e-01	2.8601e+00	9.4881e-01
3.1110e-01	2.8543e+00	9.3481e-01
3.1239e-01	2.8484e+00	9.2122e-01
3.1369e-01	2.8424e+00	9.0803e-01
3.1499e-01	2.8364e+00	8.9522e-01
3.1632e-01	2.8303e+00	8.8279e-01
3.1765e-01	2.8241e+00	8.7073e-01
3.1899e-01	2.8180e+00	8.5903e-01
3.2034e-01	2.8118e+00	8.4767e-01
3.2171e-01	2.8056e+00	8.3665e-01
3.2309e-01	2.7995e+00	8.2597e-01
3.2448e-01	2.7933e+00	8.1560e-01
3.2588e-01	2.7871e+00	8.0554e-01
3.2729e-01	2.7810e+00	7.9579e-01
3.2872e-01	2.7749e+00	7.8633e-01
3.3016e-01	2.7688e+00	7.7716e-01
3.3161e-01	2.7628e+00	7.6826e-01
3.3307e-01	2.7568e+00	7.5963e-01
3.3455e-01	2.7509e+00	7.5126e-01
3.3604e-01	2.7450e+00	7.4314e-01
3.3754e-01	2.7392e+00	7.3527e-01
3.3906e-01	2.7334e+00	7.2763e-01
3.4059e-01	2.7277e+00	7.2023e-01
3.4213e-01	2.7221e+00	7.1304e-01
3.4369e-01	2.7166e+00	7.0608e-01
3.4527e-01	2.7111e+00	6.9932e-01
3.4685e-01	2.7057e+00	6.9277e-01
3.4845e-01	2.7004e+00	6.8641e-01
3.5007e-01	2.6951e+00	6.8024e-01
3.5170e-01	2.6900e+00	6.7425e-01
3.5335e-01	2.6849e+00	6.6845e-01
3.5501e-01	2.6799e+00	6.6281e-01
3.5669e-01	2.6750e+00	6.5734e-01
3.5839e-01	2.6702e+00	6.5203e-01
3.6010e-01	2.6655e+00	6.4688e-01
3.6182e-01	2.6608e+00	6.4188e-01
3.6357e-01	2.6563e+00	6.3702e-01
3.6533e-01	2.6518e+00	6.3231e-01
3.6710e-01	2.6475e+00	6.2773e-01
3.6890e-01	2.6432e+00	6.2328e-01
3.7071e-01	2.6391e+00	6.1895e-01
3.7254e-01	2.6350e+00	6.1475e-01
3.7439e-01	2.6310e+00	6.1067e-01
3.7626e-01	2.6272e+00	6.0670e-01
3.7814e-01	2.6234e+00	6.0284e-01
3.8005e-01	2.6197e+00	5.9908e-01
3.8197e-01	2.6162e+00	5.9542e-01
3.8392e-01	2.6127e+00	5.9187e-01
3.8588e-01	2.6093e+00	5.8840e-01
3.8786e-01	2.6060e+00	5.8502e-01
3.8987e-01	2.6029e+00	5.8173e-01
3.9189e-01	2.5998e+00	5.7852e-01
3.9394e-01	2.5968e+00	5.7539e-01
3.9601e-01	2.5940e+00	5.7234e-01
3.9810e-01	2.5912e+00	5.6935e-01
4.0021e-01	2.5885e+00	5.6643e-01
4.0234e-01	2.5860e+00	5.6358e-01
4.0450e-01	2.5835e+00	5.6079e-01
4.0668e-01	2.5812e+00	5.5805e-01
4.0888e-01	2.5789e+00	5.5537e-01
4.1111e-01	2.5768e+00	5.5274e-01
4.1336e-01	2.5747e+00	5.5015e-01
4.1564e-01	2.5728e+00	5.4761e-01
4.1794e-01	2.5709e+00	5.4511e-01
4.2027e-01	2.5692e+00	5.4265e-01
4.2263e-01	2.5676e+00	5.4022e-01
4.2501e-01	2.5660e+00	5.3782e-01
4.2741e-01	2.5646e+00	5.3545e-01
4.2985e-01	2.5633e+00	5.3310e-01
4.3231e-01	2.5621e+00	5.3077e-01
4.3480e-01	2.5610e+00	5.2846e-01
4.3732e-01	2.5600e+00	5.2616e-01
4.3987e-01	2.5591e+00	5.2387e-01
4.4245e-01	2.5583e+00	5.2158e-01
4.4506e-01	2.5576e+00	5.1930e-01
4.4770e-01	2.5570e+00	5.1701e-01
4.5038e-01	2.5565e+00	5.1471e-01
4.5308e-01	2.5561e+00	5.1241e-01
4.5582e-01	2.5559e+00	5.1009e-01
4.5859e-01	2.5557e+00	5.0775e-01
4.6139e-01	2.5557e+00	5.0539e-01
4.6423e-01	2.5557e+00	5.0300e-01
4.6711e-01	2.5558e+00	5.0058e-01
4.7002e-01	2.5561e+00	4.9811e-01
4.7296e-01	2.5564e+00	4.9561e-01
4.7595e-01	2.5569e+00	4.9305e-01
4.7897e-01	2.5575e+00	4.9045e-01
4.8203e-01	2.5581e+00	4.8778e-01
4.8513e-01	2.5589e+00	4.8504e-01
4.8827e-01	2.5597e+00	4.8224e-01
4.9145e-01	2.5606e+00	4.7935e-01
4.9467e-01	2.5617e+00	4.7638e-01
4.9793e-01	2.5628e+00	4.7331e-01
5.0124e-01	2.5639e+00	4.7014e-01
5.0459e-01	2.5652e+00	4.6687e-01
5.0799e-01	2.5665e+00	4.6348e-01
5.1143e-01	2.5679e+00	4.5996e-01
5.1492e-01	2.5694e+00	4.5631e-01
5.1846e-01	2.5709e+00	4.5253e-01
5.2205e-01	2.5724e+00	4.4859e-01
5.2569e-01	2.5739e+00	4.4451e-01
5.2938e-01	2.5753e+00	4.4027e-01
5.3312e-01	2.5768e+00	4.3589e-01
5.3691e-01	2.5781e+00	4.3137e-01
5.4076e-01	2.5794e+00	4.2674e-01
5.4466e-01	2.5804e+00	4.2205e-01
5.4862e-01	2.5812e+00	4.1740e-01
5.5264e-01	2.5817e+00	4.1295e-01
5.5672e-01	2.5820e+00	4.0897e-01
5.6086e-01	2.5821e+00	4.0592e-01
5.6506e-01	2.5829e+00	4.0436e-01
5.6932e-01	2.5859e+00	4.0446e-01
5.7365e-01	2.5936e+00	4.0431e-01
5.7804e-01	2.6056e+00	3.9881e-01
5.8251e-01	2.6155e+00	3.8566e-01
5.8704e-01	2.6188e+00	3.6987e-01
5.9164e-01	2.6173e+00	3.5611e-01
5.9632e-01	2.6142e+00	3.4521e-01
6.0107e-01	2.6109e+00	3.3644e-01
6.0590e-01	2.6080e+00	3.2897e-01
6.1080e-01	2.6057e+00	3.2225e-01
6.1579e-01	2.6038e+00	3.1590e-01
6.2085e-01	2.6024e+00	3.0969e-01
6.2601e-01	2.6013e+00	3.0345e-01
6.3124e-01	2.6005e+00	2.9706e-01
6.3657e-01	2.5999e+00	2.9045e-01
6.4199e-01	2.5993e+00	2.8354e-01
6.4749e-01	2.5986e+00	2.7627e-01
6.5310e-01	2.5978e+00	2.6861e-01
6.5880e-01	2.5966e+00	2.6055e-01
6.6461e-01	2.5948e+00	2.5211e-01
6.7051e-01	2.5921e+00	2.4340e-01
6.7652e-01	2.5880e+00	2.3477e-01
6.8264e-01	2.5818e+00	2.2698e-01
6.8888e-01	2.5729e+00	2.2198e-01
6.9523e-01	2.5620e+00	2.2427e-01
7.0169e-01	2.5582e+00	2.4130e-01
7.0828e-01	2.5886e+00	2.6084e-01
7.1499e-01	2.6331e+00	2.3051e-01
7.2183e-01	2.6347e+00	1.8052e-01
7.2880e-01	2.6152e+00	1.4885e-01
7.3591e-01	2.5942e+00	1.3124e-01
7.4316e-01	2.5757e+00	1.2080e-01
7.5055e-01	2.5598e+00	1.1402e-01
7.5809e-01	2.5460e+00	1.0926e-01
7.6579e-01	2.5338e+00	1.0569e-01
7.7364e-01	2.5229e+00	1.0287e-01
7.8166e-01	2.5130e+00	1.0054e-01
7.8984e-01	2.5039e+00	9.8559e-02
7.9820e-01	2.4955e+00	9.6825e-02
8.0673e-01	2.4877e+00	9.5276e-02
8.1545e-01	2.4803e+00	9.3869e-02
8.2436e-01	2.4733e+00	9.2574e-02
8.3347e-01	2.4667e+00	9.1368e-02
8.4277e-01	2.4605e+00	9.0235e-02
8.5230e-01	2.4544e+00	8.9164e-02
8.6203e-01	2.4487e+00	8.8143e-02
8.7200e-01	2.4432e+00	8.7167e-02
8.8219e-01	2.4379e+00	8.6229e-02
8.9263e-01	2.4327e+00	8.5325e-02
9.0332e-01	2.4278e+00	8.4450e-02
9.1426e-01	2.4230e+00	8.3602e-02
9.2548e-01	2.4184e+00	8.2777e-02
9.3697e-01	2.4139e+00	8.1975e-02
9.4875e-01	2.4095e+00	8.1192e-02
9.6083e-01	2.4052e+00	8.0427e-02
9.7323e-01	2.4011e+00	7.9679e-02
9.8595e-01	2.3971e+00	7.8947e-02
9.9900e-01	2.3931e+00	7.8230e-02
1.0124e+00	2.3893e+00	7.7526e-02
1.0262e+00	2.3856e+00	7.6836e-02
