Material: main / CdSe / Ninomiya-o
Optical constants. S. Ninomiya and S. Adachi. Optical properties of cubic and hexagonal CdSe, J. Appl. Phys. 78, 4681-4689 (1995)[Calculation script (Python)]
Comments: Hexagonal CdSe. Fit of author's experimental data to a simplified model of the interband transitions (MDF). Ordinary ray (o), room temperature.
wavelength (um)	n	k
2.3393e-01	1.7898e+00	1.7225e+00
2.3466e-01	1.7923e+00	1.7228e+00
2.3539e-01	1.7954e+00	1.7243e+00
2.3613e-01	1.7991e+00	1.7270e+00
2.3687e-01	1.8037e+00	1.7307e+00
2.3762e-01	1.8093e+00	1.7354e+00
2.3837e-01	1.8158e+00	1.7408e+00
2.3912e-01	1.8235e+00	1.7468e+00
2.3988e-01	1.8323e+00	1.7533e+00
2.4065e-01	1.8424e+00	1.7601e+00
2.4142e-01	1.8536e+00	1.7671e+00
2.4219e-01	1.8662e+00	1.7742e+00
2.4297e-01	1.8799e+00	1.7812e+00
2.4376e-01	1.8949e+00	1.7879e+00
2.4455e-01	1.9111e+00	1.7943e+00
2.4534e-01	1.9284e+00	1.8001e+00
2.4614e-01	1.9469e+00	1.8053e+00
2.4695e-01	1.9663e+00	1.8097e+00
2.4776e-01	1.9867e+00	1.8132e+00
2.4858e-01	2.0079e+00	1.8156e+00
2.4940e-01	2.0299e+00	1.8169e+00
2.5022e-01	2.0524e+00	1.8171e+00
2.5106e-01	2.0753e+00	1.8160e+00
2.5190e-01	2.0985e+00	1.8135e+00
2.5274e-01	2.1219e+00	1.8098e+00
2.5359e-01	2.1452e+00	1.8047e+00
2.5444e-01	2.1684e+00	1.7983e+00
2.5531e-01	2.1912e+00	1.7907e+00
2.5617e-01	2.2136e+00	1.7818e+00
2.5704e-01	2.2353e+00	1.7719e+00
2.5792e-01	2.2564e+00	1.7609e+00
2.5881e-01	2.2767e+00	1.7491e+00
2.5970e-01	2.2962e+00	1.7364e+00
2.6060e-01	2.3147e+00	1.7230e+00
2.6150e-01	2.3323e+00	1.7092e+00
2.6241e-01	2.3490e+00	1.6948e+00
2.6332e-01	2.3648e+00	1.6802e+00
2.6425e-01	2.3796e+00	1.6653e+00
2.6518e-01	2.3935e+00	1.6502e+00
2.6611e-01	2.4065e+00	1.6351e+00
2.6705e-01	2.4188e+00	1.6201e+00
2.6800e-01	2.4302e+00	1.6051e+00
2.6896e-01	2.4409e+00	1.5902e+00
2.6992e-01	2.4509e+00	1.5756e+00
2.7089e-01	2.4602e+00	1.5611e+00
2.7186e-01	2.4689e+00	1.5470e+00
2.7285e-01	2.4770e+00	1.5332e+00
2.7384e-01	2.4846e+00	1.5197e+00
2.7484e-01	2.4916e+00	1.5066e+00
2.7584e-01	2.4982e+00	1.4939e+00
2.7685e-01	2.5044e+00	1.4817e+00
2.7787e-01	2.5102e+00	1.4700e+00
2.7890e-01	2.5156e+00	1.4588e+00
2.7993e-01	2.5208e+00	1.4483e+00
2.8098e-01	2.5257e+00	1.4385e+00
2.8203e-01	2.5305e+00	1.4293e+00
2.8308e-01	2.5352e+00	1.4210e+00
2.8415e-01	2.5401e+00	1.4135e+00
2.8522e-01	2.5451e+00	1.4069e+00
2.8631e-01	2.5505e+00	1.4013e+00
2.8740e-01	2.5565e+00	1.3966e+00
2.8850e-01	2.5634e+00	1.3929e+00
2.8960e-01	2.5714e+00	1.3902e+00
2.9072e-01	2.5808e+00	1.3882e+00
2.9184e-01	2.5920e+00	1.3868e+00
2.9298e-01	2.6054e+00	1.3857e+00
2.9412e-01	2.6213e+00	1.3843e+00
2.9527e-01	2.6398e+00	1.3821e+00
2.9643e-01	2.6610e+00	1.3783e+00
2.9760e-01	2.6848e+00	1.3720e+00
2.9878e-01	2.7107e+00	1.3624e+00
2.9997e-01	2.7378e+00	1.3487e+00
3.0116e-01	2.7650e+00	1.3305e+00
3.0237e-01	2.7911e+00	1.3076e+00
3.0359e-01	2.8148e+00	1.2805e+00
3.0481e-01	2.8352e+00	1.2500e+00
3.0605e-01	2.8516e+00	1.2170e+00
3.0730e-01	2.8637e+00	1.1827e+00
3.0855e-01	2.8715e+00	1.1481e+00
3.0982e-01	2.8755e+00	1.1141e+00
3.1110e-01	2.8762e+00	1.0814e+00
3.1239e-01	2.8741e+00	1.0503e+00
3.1369e-01	2.8698e+00	1.0211e+00
3.1499e-01	2.8639e+00	9.9393e-01
3.1632e-01	2.8567e+00	9.6865e-01
3.1765e-01	2.8487e+00	9.4521e-01
3.1899e-01	2.8400e+00	9.2350e-01
3.2034e-01	2.8310e+00	9.0336e-01
3.2171e-01	2.8218e+00	8.8466e-01
3.2309e-01	2.8125e+00	8.6726e-01
3.2448e-01	2.8033e+00	8.5101e-01
3.2588e-01	2.7941e+00	8.3582e-01
3.2729e-01	2.7850e+00	8.2157e-01
3.2872e-01	2.7760e+00	8.0816e-01
3.3016e-01	2.7673e+00	7.9552e-01
3.3161e-01	2.7587e+00	7.8358e-01
3.3307e-01	2.7503e+00	7.7227e-01
3.3455e-01	2.7422e+00	7.6153e-01
3.3604e-01	2.7342e+00	7.5132e-01
3.3754e-01	2.7264e+00	7.4159e-01
3.3906e-01	2.7188e+00	7.3232e-01
3.4059e-01	2.7114e+00	7.2345e-01
3.4213e-01	2.7042e+00	7.1497e-01
3.4369e-01	2.6971e+00	7.0685e-01
3.4527e-01	2.6903e+00	6.9906e-01
3.4685e-01	2.6836e+00	6.9159e-01
3.4845e-01	2.6771e+00	6.8441e-01
3.5007e-01	2.6708e+00	6.7752e-01
3.5170e-01	2.6646e+00	6.7088e-01
3.5335e-01	2.6585e+00	6.6449e-01
3.5501e-01	2.6527e+00	6.5834e-01
3.5669e-01	2.6469e+00	6.5241e-01
3.5839e-01	2.6413e+00	6.4669e-01
3.6010e-01	2.6359e+00	6.4117e-01
3.6182e-01	2.6306e+00	6.3585e-01
3.6357e-01	2.6255e+00	6.3071e-01
3.6533e-01	2.6205e+00	6.2575e-01
3.6710e-01	2.6156e+00	6.2096e-01
3.6890e-01	2.6108e+00	6.1632e-01
3.7071e-01	2.6062e+00	6.1184e-01
3.7254e-01	2.6017e+00	6.0751e-01
3.7439e-01	2.5974e+00	6.0332e-01
3.7626e-01	2.5931e+00	5.9926e-01
3.7814e-01	2.5890e+00	5.9533e-01
3.8005e-01	2.5850e+00	5.9152e-01
3.8197e-01	2.5812e+00	5.8783e-01
3.8392e-01	2.5775e+00	5.8426e-01
3.8588e-01	2.5738e+00	5.8079e-01
3.8786e-01	2.5704e+00	5.7743e-01
3.8987e-01	2.5670e+00	5.7417e-01
3.9189e-01	2.5637e+00	5.7100e-01
3.9394e-01	2.5606e+00	5.6792e-01
3.9601e-01	2.5576e+00	5.6493e-01
3.9810e-01	2.5547e+00	5.6202e-01
4.0021e-01	2.5519e+00	5.5919e-01
4.0234e-01	2.5492e+00	5.5643e-01
4.0450e-01	2.5467e+00	5.5374e-01
4.0668e-01	2.5442e+00	5.5112e-01
4.0888e-01	2.5419e+00	5.4856e-01
4.1111e-01	2.5397e+00	5.4606e-01
4.1336e-01	2.5376e+00	5.4361e-01
4.1564e-01	2.5356e+00	5.4122e-01
4.1794e-01	2.5338e+00	5.3887e-01
4.2027e-01	2.5320e+00	5.3657e-01
4.2263e-01	2.5304e+00	5.3432e-01
4.2501e-01	2.5288e+00	5.3209e-01
4.2741e-01	2.5274e+00	5.2991e-01
4.2985e-01	2.5261e+00	5.2775e-01
4.3231e-01	2.5249e+00	5.2562e-01
4.3480e-01	2.5238e+00	5.2351e-01
4.3732e-01	2.5229e+00	5.2142e-01
4.3987e-01	2.5220e+00	5.1935e-01
4.4245e-01	2.5213e+00	5.1729e-01
4.4506e-01	2.5206e+00	5.1524e-01
4.4770e-01	2.5201e+00	5.1319e-01
4.5038e-01	2.5197e+00	5.1115e-01
4.5308e-01	2.5194e+00	5.0910e-01
4.5582e-01	2.5192e+00	5.0704e-01
4.5859e-01	2.5191e+00	5.0498e-01
4.6139e-01	2.5192e+00	5.0289e-01
4.6423e-01	2.5193e+00	5.0079e-01
4.6711e-01	2.5196e+00	4.9866e-01
4.7002e-01	2.5199e+00	4.9651e-01
4.7296e-01	2.5204e+00	4.9432e-01
4.7595e-01	2.5210e+00	4.9209e-01
4.7897e-01	2.5216e+00	4.8981e-01
4.8203e-01	2.5224e+00	4.8749e-01
4.8513e-01	2.5233e+00	4.8511e-01
4.8827e-01	2.5243e+00	4.8267e-01
4.9145e-01	2.5254e+00	4.8017e-01
4.9467e-01	2.5266e+00	4.7759e-01
4.9793e-01	2.5278e+00	4.7494e-01
5.0124e-01	2.5292e+00	4.7220e-01
5.0459e-01	2.5307e+00	4.6936e-01
5.0799e-01	2.5322e+00	4.6643e-01
5.1143e-01	2.5338e+00	4.6340e-01
5.1492e-01	2.5355e+00	4.6026e-01
5.1846e-01	2.5372e+00	4.5700e-01
5.2205e-01	2.5390e+00	4.5362e-01
5.2569e-01	2.5408e+00	4.5011e-01
5.2938e-01	2.5426e+00	4.4649e-01
5.3312e-01	2.5444e+00	4.4275e-01
5.3691e-01	2.5462e+00	4.3890e-01
5.4076e-01	2.5479e+00	4.3498e-01
5.4466e-01	2.5495e+00	4.3103e-01
5.4862e-01	2.5511e+00	4.2711e-01
5.5264e-01	2.5525e+00	4.2335e-01
5.5672e-01	2.5539e+00	4.1992e-01
5.6086e-01	2.5555e+00	4.1706e-01
5.6506e-01	2.5578e+00	4.1492e-01
5.6932e-01	2.5618e+00	4.1327e-01
5.7365e-01	2.5682e+00	4.1078e-01
5.7804e-01	2.5764e+00	4.0524e-01
5.8251e-01	2.5835e+00	3.9589e-01
5.8704e-01	2.5874e+00	3.8474e-01
5.9164e-01	2.5885e+00	3.7411e-01
5.9632e-01	2.5883e+00	3.6487e-01
6.0107e-01	2.5876e+00	3.5688e-01
6.0590e-01	2.5870e+00	3.4976e-01
6.1080e-01	2.5867e+00	3.4315e-01
6.1579e-01	2.5867e+00	3.3680e-01
6.2085e-01	2.5871e+00	3.3052e-01
6.2601e-01	2.5877e+00	3.2416e-01
6.3124e-01	2.5885e+00	3.1762e-01
6.3657e-01	2.5894e+00	3.1083e-01
6.4199e-01	2.5904e+00	3.0371e-01
6.4749e-01	2.5914e+00	2.9620e-01
6.5310e-01	2.5923e+00	2.8826e-01
6.5880e-01	2.5929e+00	2.7984e-01
6.6461e-01	2.5931e+00	2.7093e-01
6.7051e-01	2.5926e+00	2.6156e-01
6.7652e-01	2.5910e+00	2.5184e-01
6.8264e-01	2.5880e+00	2.4214e-01
6.8888e-01	2.5829e+00	2.3333e-01
6.9523e-01	2.5752e+00	2.2753e-01
7.0169e-01	2.5673e+00	2.2886e-01
7.0828e-01	2.5686e+00	2.3816e-01
7.1499e-01	2.5837e+00	2.4468e-01
7.2183e-01	2.6156e+00	2.3858e-01
7.2880e-01	2.6390e+00	1.9635e-01
7.3591e-01	2.6280e+00	1.5379e-01
7.4316e-01	2.6063e+00	1.2856e-01
7.5055e-01	2.5854e+00	1.1415e-01
7.5809e-01	2.5674e+00	1.0525e-01
7.6579e-01	2.5518e+00	9.9265e-02
7.7364e-01	2.5382e+00	9.4939e-02
7.8166e-01	2.5262e+00	9.1623e-02
7.8984e-01	2.5153e+00	8.8961e-02
7.9820e-01	2.5055e+00	8.6745e-02
8.0673e-01	2.4964e+00	8.4844e-02
8.1545e-01	2.4880e+00	8.3175e-02
8.2436e-01	2.4801e+00	8.1682e-02
8.3347e-01	2.4728e+00	8.0325e-02
8.4277e-01	2.4658e+00	7.9077e-02
8.5230e-01	2.4592e+00	7.7917e-02
8.6203e-01	2.4530e+00	7.6829e-02
8.7200e-01	2.4470e+00	7.5802e-02
8.8219e-01	2.4413e+00	7.4826e-02
8.9263e-01	2.4358e+00	7.3895e-02
9.0332e-01	2.4305e+00	7.3003e-02
9.1426e-01	2.4254e+00	7.2144e-02
9.2548e-01	2.4206e+00	7.1316e-02
9.3697e-01	2.4158e+00	7.0514e-02
9.4875e-01	2.4113e+00	6.9737e-02
9.6083e-01	2.4068e+00	6.8981e-02
9.7323e-01	2.4025e+00	6.8246e-02
9.8595e-01	2.3984e+00	6.7529e-02
9.9900e-01	2.3943e+00	6.6829e-02
1.0124e+00	2.3904e+00	6.6146e-02
1.0262e+00	2.3865e+00	6.5476e-02
