Material: main / CdSe / Ninomiya-cubic
Optical constants. 1) S. Ninomiya and S. Adachi. Optical properties of cubic and hexagonal CdSe, J. Appl. Phys. 78, 4681-4689 (1995)2) Y. D. Kim, M. V. Klein, S. F. Ren, Y. C. Chang, H. Luo, N. Samarth, J. K. Furdyna. Optical properties of zinc-blende CdSe and ZnxCd1âˆ’xSe films grown on GaAs, Phys. Rev. B 49, 7262-7270 (1994)* Authors of Ref. 1 provide a simplified model of the interband transitions (MDF) based on the experimental data from Ref. 2.[Calculation script (Python)]
Comments: Cubic CdSe. Room temperature.
wavelength (um)	n	k
2.0664e-01	2.0265e+00	2.0586e+00
2.0726e-01	2.0455e+00	2.0364e+00
2.0789e-01	2.0631e+00	2.0136e+00
2.0852e-01	2.0794e+00	1.9903e+00
2.0916e-01	2.0943e+00	1.9666e+00
2.0979e-01	2.1078e+00	1.9426e+00
2.1044e-01	2.1198e+00	1.9184e+00
2.1108e-01	2.1304e+00	1.8941e+00
2.1173e-01	2.1397e+00	1.8699e+00
2.1239e-01	2.1475e+00	1.8458e+00
2.1304e-01	2.1540e+00	1.8219e+00
2.1371e-01	2.1591e+00	1.7983e+00
2.1437e-01	2.1630e+00	1.7751e+00
2.1504e-01	2.1657e+00	1.7523e+00
2.1572e-01	2.1672e+00	1.7301e+00
2.1640e-01	2.1676e+00	1.7085e+00
2.1708e-01	2.1669e+00	1.6876e+00
2.1777e-01	2.1652e+00	1.6674e+00
2.1846e-01	2.1626e+00	1.6479e+00
2.1916e-01	2.1592e+00	1.6293e+00
2.1986e-01	2.1549e+00	1.6114e+00
2.2056e-01	2.1499e+00	1.5945e+00
2.2127e-01	2.1442e+00	1.5785e+00
2.2199e-01	2.1380e+00	1.5633e+00
2.2271e-01	2.1312e+00	1.5491e+00
2.2343e-01	2.1239e+00	1.5359e+00
2.2416e-01	2.1161e+00	1.5236e+00
2.2489e-01	2.1081e+00	1.5122e+00
2.2563e-01	2.0997e+00	1.5019e+00
2.2637e-01	2.0910e+00	1.4925e+00
2.2712e-01	2.0822e+00	1.4840e+00
2.2788e-01	2.0732e+00	1.4765e+00
2.2863e-01	2.0641e+00	1.4700e+00
2.2940e-01	2.0550e+00	1.4644e+00
2.3016e-01	2.0459e+00	1.4597e+00
2.3094e-01	2.0368e+00	1.4560e+00
2.3172e-01	2.0278e+00	1.4531e+00
2.3250e-01	2.0189e+00	1.4512e+00
2.3329e-01	2.0102e+00	1.4502e+00
2.3408e-01	2.0018e+00	1.4500e+00
2.3488e-01	1.9935e+00	1.4507e+00
2.3569e-01	1.9856e+00	1.4522e+00
2.3650e-01	1.9780e+00	1.4545e+00
2.3732e-01	1.9708e+00	1.4577e+00
2.3814e-01	1.9640e+00	1.4616e+00
2.3897e-01	1.9577e+00	1.4663e+00
2.3980e-01	1.9518e+00	1.4717e+00
2.4064e-01	1.9464e+00	1.4778e+00
2.4148e-01	1.9416e+00	1.4847e+00
2.4233e-01	1.9374e+00	1.4922e+00
2.4319e-01	1.9338e+00	1.5003e+00
2.4406e-01	1.9308e+00	1.5091e+00
2.4493e-01	1.9285e+00	1.5184e+00
2.4580e-01	1.9270e+00	1.5283e+00
2.4668e-01	1.9262e+00	1.5388e+00
2.4757e-01	1.9261e+00	1.5497e+00
2.4847e-01	1.9269e+00	1.5612e+00
2.4937e-01	1.9285e+00	1.5730e+00
2.5028e-01	1.9310e+00	1.5852e+00
2.5119e-01	1.9344e+00	1.5978e+00
2.5211e-01	1.9388e+00	1.6108e+00
2.5304e-01	1.9441e+00	1.6240e+00
2.5397e-01	1.9504e+00	1.6374e+00
2.5492e-01	1.9577e+00	1.6511e+00
2.5586e-01	1.9660e+00	1.6648e+00
2.5682e-01	1.9755e+00	1.6787e+00
2.5778e-01	1.9860e+00	1.6926e+00
2.5875e-01	1.9977e+00	1.7065e+00
2.5973e-01	2.0105e+00	1.7203e+00
2.6072e-01	2.0245e+00	1.7340e+00
2.6171e-01	2.0397e+00	1.7475e+00
2.6271e-01	2.0561e+00	1.7606e+00
2.6372e-01	2.0737e+00	1.7734e+00
2.6473e-01	2.0926e+00	1.7858e+00
2.6576e-01	2.1127e+00	1.7976e+00
2.6679e-01	2.1341e+00	1.8088e+00
2.6783e-01	2.1567e+00	1.8193e+00
2.6887e-01	2.1805e+00	1.8289e+00
2.6993e-01	2.2055e+00	1.8376e+00
2.7099e-01	2.2317e+00	1.8452e+00
2.7207e-01	2.2591e+00	1.8517e+00
2.7315e-01	2.2875e+00	1.8569e+00
2.7424e-01	2.3169e+00	1.8606e+00
2.7534e-01	2.3472e+00	1.8629e+00
2.7644e-01	2.3783e+00	1.8636e+00
2.7756e-01	2.4101e+00	1.8625e+00
2.7869e-01	2.4424e+00	1.8596e+00
2.7982e-01	2.4752e+00	1.8549e+00
2.8096e-01	2.5082e+00	1.8481e+00
2.8212e-01	2.5413e+00	1.8394e+00
2.8328e-01	2.5743e+00	1.8286e+00
2.8445e-01	2.6070e+00	1.8158e+00
2.8563e-01	2.6392e+00	1.8009e+00
2.8682e-01	2.6707e+00	1.7841e+00
2.8803e-01	2.7013e+00	1.7653e+00
2.8924e-01	2.7310e+00	1.7447e+00
2.9046e-01	2.7593e+00	1.7223e+00
2.9169e-01	2.7864e+00	1.6983e+00
2.9294e-01	2.8119e+00	1.6729e+00
2.9419e-01	2.8358e+00	1.6462e+00
2.9545e-01	2.8580e+00	1.6184e+00
2.9673e-01	2.8784e+00	1.5897e+00
2.9802e-01	2.8971e+00	1.5601e+00
2.9931e-01	2.9139e+00	1.5300e+00
3.0062e-01	2.9288e+00	1.4995e+00
3.0194e-01	2.9420e+00	1.4688e+00
3.0328e-01	2.9533e+00	1.4380e+00
3.0462e-01	2.9630e+00	1.4072e+00
3.0597e-01	2.9710e+00	1.3767e+00
3.0734e-01	2.9774e+00	1.3464e+00
3.0872e-01	2.9824e+00	1.3166e+00
3.1012e-01	2.9859e+00	1.2873e+00
3.1152e-01	2.9882e+00	1.2586e+00
3.1294e-01	2.9892e+00	1.2306e+00
3.1437e-01	2.9892e+00	1.2032e+00
3.1581e-01	2.9881e+00	1.1766e+00
3.1727e-01	2.9861e+00	1.1508e+00
3.1874e-01	2.9833e+00	1.1258e+00
3.2023e-01	2.9797e+00	1.1015e+00
3.2173e-01	2.9755e+00	1.0781e+00
3.2324e-01	2.9706e+00	1.0555e+00
3.2477e-01	2.9652e+00	1.0338e+00
3.2631e-01	2.9594e+00	1.0128e+00
3.2786e-01	2.9532e+00	9.9256e-01
3.2944e-01	2.9466e+00	9.7311e-01
3.3102e-01	2.9397e+00	9.5442e-01
3.3262e-01	2.9325e+00	9.3645e-01
3.3424e-01	2.9252e+00	9.1919e-01
3.3587e-01	2.9177e+00	9.0261e-01
3.3752e-01	2.9100e+00	8.8670e-01
3.3919e-01	2.9023e+00	8.7142e-01
3.4087e-01	2.8944e+00	8.5675e-01
3.4257e-01	2.8866e+00	8.4268e-01
3.4429e-01	2.8787e+00	8.2917e-01
3.4602e-01	2.8708e+00	8.1621e-01
3.4777e-01	2.8629e+00	8.0377e-01
3.4954e-01	2.8550e+00	7.9183e-01
3.5132e-01	2.8472e+00	7.8037e-01
3.5313e-01	2.8394e+00	7.6937e-01
3.5495e-01	2.8318e+00	7.5881e-01
3.5679e-01	2.8242e+00	7.4868e-01
3.5866e-01	2.8167e+00	7.3894e-01
3.6054e-01	2.8093e+00	7.2959e-01
3.6244e-01	2.8020e+00	7.2061e-01
3.6436e-01	2.7948e+00	7.1198e-01
3.6630e-01	2.7877e+00	7.0369e-01
3.6826e-01	2.7808e+00	6.9572e-01
3.7025e-01	2.7740e+00	6.8806e-01
3.7225e-01	2.7673e+00	6.8069e-01
3.7428e-01	2.7608e+00	6.7360e-01
3.7633e-01	2.7544e+00	6.6678e-01
3.7840e-01	2.7482e+00	6.6022e-01
3.8049e-01	2.7421e+00	6.5389e-01
3.8261e-01	2.7361e+00	6.4780e-01
3.8475e-01	2.7303e+00	6.4194e-01
3.8692e-01	2.7247e+00	6.3628e-01
3.8911e-01	2.7192e+00	6.3082e-01
3.9132e-01	2.7138e+00	6.2556e-01
3.9356e-01	2.7086e+00	6.2048e-01
3.9583e-01	2.7036e+00	6.1557e-01
3.9812e-01	2.6987e+00	6.1083e-01
4.0044e-01	2.6940e+00	6.0625e-01
4.0279e-01	2.6894e+00	6.0181e-01
4.0516e-01	2.6850e+00	5.9751e-01
4.0756e-01	2.6807e+00	5.9335e-01
4.0999e-01	2.6766e+00	5.8931e-01
4.1245e-01	2.6727e+00	5.8539e-01
4.1494e-01	2.6689e+00	5.8158e-01
4.1746e-01	2.6652e+00	5.7788e-01
4.2001e-01	2.6617e+00	5.7427e-01
4.2260e-01	2.6584e+00	5.7076e-01
4.2521e-01	2.6553e+00	5.6733e-01
4.2786e-01	2.6523e+00	5.6397e-01
4.3054e-01	2.6494e+00	5.6069e-01
4.3325e-01	2.6467e+00	5.5748e-01
4.3600e-01	2.6442e+00	5.5432e-01
4.3878e-01	2.6418e+00	5.5121e-01
4.4160e-01	2.6395e+00	5.4816e-01
4.4445e-01	2.6375e+00	5.4514e-01
4.4735e-01	2.6355e+00	5.4216e-01
4.5028e-01	2.6338e+00	5.3920e-01
4.5325e-01	2.6322e+00	5.3626e-01
4.5625e-01	2.6307e+00	5.3334e-01
4.5930e-01	2.6294e+00	5.3043e-01
4.6239e-01	2.6283e+00	5.2752e-01
4.6552e-01	2.6273e+00	5.2460e-01
4.6870e-01	2.6264e+00	5.2167e-01
4.7192e-01	2.6257e+00	5.1872e-01
4.7518e-01	2.6252e+00	5.1574e-01
4.7848e-01	2.6248e+00	5.1273e-01
4.8184e-01	2.6245e+00	5.0967e-01
4.8524e-01	2.6244e+00	5.0656e-01
4.8869e-01	2.6244e+00	5.0339e-01
4.9219e-01	2.6246e+00	5.0014e-01
4.9574e-01	2.6249e+00	4.9682e-01
4.9934e-01	2.6254e+00	4.9341e-01
5.0299e-01	2.6259e+00	4.8990e-01
5.0670e-01	2.6266e+00	4.8627e-01
5.1046e-01	2.6274e+00	4.8252e-01
5.1428e-01	2.6283e+00	4.7864e-01
5.1816e-01	2.6293e+00	4.7460e-01
5.2209e-01	2.6304e+00	4.7041e-01
5.2609e-01	2.6315e+00	4.6604e-01
5.3015e-01	2.6326e+00	4.6149e-01
5.3427e-01	2.6337e+00	4.5676e-01
5.3845e-01	2.6347e+00	4.5183e-01
5.4270e-01	2.6355e+00	4.4673e-01
5.4702e-01	2.6361e+00	4.4150e-01
5.5141e-01	2.6363e+00	4.3625e-01
5.5587e-01	2.6358e+00	4.3121e-01
5.6040e-01	2.6344e+00	4.2691e-01
5.6501e-01	2.6319e+00	4.2459e-01
5.6969e-01	2.6292e+00	4.2707e-01
5.7445e-01	2.6330e+00	4.3814e-01
5.7929e-01	2.6591e+00	4.4667e-01
5.8421e-01	2.6888e+00	4.2207e-01
5.8922e-01	2.6901e+00	3.9023e-01
5.9431e-01	2.6816e+00	3.7120e-01
5.9950e-01	2.6738e+00	3.5965e-01
6.0477e-01	2.6681e+00	3.5131e-01
6.1014e-01	2.6641e+00	3.4430e-01
6.1560e-01	2.6612e+00	3.3781e-01
6.2117e-01	2.6593e+00	3.3143e-01
6.2683e-01	2.6579e+00	3.2495e-01
6.3260e-01	2.6571e+00	3.1822e-01
6.3847e-01	2.6565e+00	3.1116e-01
6.4446e-01	2.6561e+00	3.0368e-01
6.5056e-01	2.6556e+00	2.9573e-01
6.5677e-01	2.6550e+00	2.8726e-01
6.6311e-01	2.6539e+00	2.7827e-01
6.6957e-01	2.6522e+00	2.6879e-01
6.7615e-01	2.6493e+00	2.5898e-01
6.8287e-01	2.6446e+00	2.4931e-01
6.8972e-01	2.6373e+00	2.4094e-01
6.9671e-01	2.6266e+00	2.3685e-01
7.0385e-01	2.6149e+00	2.4413e-01
7.1113e-01	2.6208e+00	2.6997e-01
7.1856e-01	2.6731e+00	2.7775e-01
7.2615e-01	2.7100e+00	2.2160e-01
7.3390e-01	2.6958e+00	1.6893e-01
7.4182e-01	2.6698e+00	1.4038e-01
7.4992e-01	2.6461e+00	1.2486e-01
7.5819e-01	2.6260e+00	1.1550e-01
7.6664e-01	2.6089e+00	1.0927e-01
7.7529e-01	2.5940e+00	1.0476e-01
7.8413e-01	2.5810e+00	1.0128e-01
7.9318e-01	2.5692e+00	9.8465e-02
8.0244e-01	2.5585e+00	9.6089e-02
8.1192e-01	2.5487e+00	9.4025e-02
8.2162e-01	2.5396e+00	9.2189e-02
