Material: main / Rh / Arndt
Optical constants. D. P. Arndt, R. M. A. Azzam, J. M. Bennett, J. P. Borgogno, C. K. Carniglia, W. E. Case, J. A. Dobrowolski, U. J. Gibson, T. Tuttle Hart, F. C. Ho, V. A. Hodgkin, W. P. Klapp, H. A. Macleod, E. Pelletier, M. K. Purvis, D. M. Quinn, D. H. Strome, R. Swenson, P. A. Temple, and T. F. Thonn. Multiple determination of the optical constants of thin-film coating materials, Appl. Opt. 23, 3571-3596 (1984)
Comments: Thin film. Mean values of measurements by different methods.
wavelength (um)	n	k
0.40	2.18	2.91
0.45	2.38	3.08
0.50	2.55	3.21
0.55	2.68	3.36
0.60	2.81	3.50
0.65	2.94	3.65
0.70	3.03	3.77
0.75	2.99	3.86
