Material: main / Rh / Coulter-40
Optical constants. J. K. Coulter, G. Hass, and J. B. Ramsey, Jr.. Optical constants and reflectance and transmittance of evaporated rhodium films in the visible, J. Opt. Soc. Am. 63, 1149-1153 (1973)
Comments: Evaporated Rh deposited at 40 Â°C
wavelength (um)	n	k
0.4047	1.35	3.57
0.4358	1.51	3.76
0.4916	1.68	4.05
0.5461	1.80	4.42
0.5780	1.85	4.59
0.6120	1.91	4.77
