Material: main / Rh / Coulter-300
Optical constants. J. K. Coulter, G. Hass, and J. B. Ramsey, Jr.. Optical constants and reflectance and transmittance of evaporated rhodium films in the visible, J. Opt. Soc. Am. 63, 1149-1153 (1973)
Comments: Evaporated Rh deposited at 300 Â°C
wavelength (um)	n	k
0.4047	1.37	4.22
0.4358	1.59	4.42
0.4916	1.78	4.71
0.5461	1.89	5.14
0.5780	1.98	5.34
0.6120	2.04	5.57
