Material: main / Rh / Weaver
Optical constants. 1) J. H. Weaver, C. G. Olson, and D. W. Lynch. Optical investigation of the electronic structure of bulk Rh and Ir, Phys. Rev. B 15, 4115 (1977)2) Handbook of Optical Constants of Solids, Edward D. Palik, ed. Academic Press, Boston, 1985 (ref. 2 provides numerical values for the graphical data reported in ref. 1)
wavelength (um)	n	k
0.2000	0.78	1.85
0.2066	0.76	1.93
0.2138	0.79	2.00
0.2214	0.90	2.01
0.2296	0.80	2.14
0.2384	0.79	2.23
0.2480	0.79	2.34
0.2530	0.79	2.39
0.2583	0.79	2.46
0.2638	0.79	2.52
0.2695	0.78	2.60
0.2755	0.79	2.68
0.2818	0.80	2.76
0.2883	0.83	2.85
0.2952	0.84	2.94
0.3024	0.84	3.03
0.3100	0.86	3.12
0.3179	0.88	3.23
0.3263	0.91	3.34
0.3351	0.95	3.45
0.3444	0.99	3.58
0.3542	1.04	3.71
0.3647	1.11	3.84
0.3757	1.20	3.97
0.3875	1.30	4.09
0.4000	1.41	4.20
0.4133	1.53	4.29
0.4275	1.63	4.36
0.4592	1.80	4.49
0.4769	1.85	4.55
0.4959	1.88	4.65
0.5166	1.90	4.78
0.5391	1.94	4.94
0.5636	2.00	5.11
0.5904	2.05	5.30
0.6199	2.12	5.51
0.6526	2.20	5.76
0.6888	2.30	6.02
0.7293	2.42	6.33
0.7749	2.60	6.64
0.8266	2.78	6.97
0.8856	3.01	7.31
0.9537	3.26	7.63
0.9919	3.38	7.80
1.033	3.51	7.94
1.078	3.60	8.09
1.127	3.67	8.26
1.181	3.72	8.44
1.240	3.71	8.67
1.305	3.69	8.94
1.378	3.62	9.36
1.459	3.64	9.81
1.550	3.63	10.3
1.653	3.63	11.0
1.771	3.67	11.7
1.907	3.77	12.6
2.066	3.87	13.5
2.254	3.97	14.7
2.480	4.20	16.1
2.755	4.45	17.7
3.100	4.74	19.8
3.542	5.22	22.4
4.133	5.85	25.9
4.959	7.01	30.7
6.199	8.66	37.5
8.266	11.5	48.6
12.40	18.5	69.4
