Material: main / Rh / Windt
Optical constants. D. L. Windt, W. C. Cash, M. Scott, P. Arendt, B. Newnam, R. F. Fisher, A. B. Swartzlander. Optical constants for thin films of Ti, Zr, Nb, Mo, Ru, Rh, Pd, Ag, Hf, Ta, W, Re, Ir, Os, Pt, and Au from 24 Å to 1216 Å, Appl. Opt. 27, 246-278 (1988)
wavelength (um)	n	k
0.00236	0.99612	0.00386
0.00316	0.99615	0.00385
0.00447	0.99339	0.00219
0.00676	0.9814	0.00391
0.01140	0.9325	0.00482
0.01355	0.888	0.0162
0.01714	0.800	0.145
0.02430	0.9105	0.274
0.02563	0.9212	0.278
0.03038	0.821	0.202
0.03270	0.778	0.252
0.03568	0.730	0.298
0.03793	0.717	0.407
0.04059	0.750	0.525
0.04478	0.753	0.584
0.04607	0.757	0.638
0.04895	0.818	0.753
0.05391	0.896	0.839
0.05843	1.03	0.977
0.06163	1.11	0.972
0.06714	1.03	0.895
0.07185	1.23	0.866
0.07359	1.22	0.814
0.07437	1.30	0.833
0.08345	1.41	0.821
0.08780	1.25	0.836
0.09198	1.33	0.799
0.09321	1.18	0.779
0.09888	1.29	0.763
0.10258	1.39	0.719
0.10482	1.32	0.715
0.10667	1.27	0.725
0.10857	1.22	0.684
0.11350	1.35	0.664
0.12007	1.27	0.644
0.12157	1.14	0.582
