Material: main / Ho / Fernandez-Perea
Optical constants. M. Fernández-Perea, J. I. Larruquert, J. A. Aznárez, J. A. Méndez, L. Poletto, F. Frassetto, A. M. Malvezzi, D. Bajoni, A. Giglia, N. Mahne and S. Nannarone. Transmittance and optical constants of Ho films in the 3-1340 eV spectral range, J. Appl. Phys. 109, 083525 (2011) (Numerical data kindly provided by Juan Larruquert)
Comments: Density: 8.33 g/cm3. Film deposited at room temperature.
Specs: {"n_absolute": true, "wavelength_vacuum": true}
wavelength (um)	n	k
0.000922369	1.0002736	0.000083206
0.000931862	1.0000028	0.000080392
0.000934954	0.99995605	7.47647E-05
0.000938137	0.99992486	0.000074964
0.000941342	0.99989082	0.000076639
0.00095007	0.99983875	0.000093167
0.000961118	0.99979254	0.000091907
0.000972425	0.99975226	0.000092821
0.000984001	0.99972271	0.000097353
0.000995857	0.99969239	0.00010004
0.001008002	0.9996682	0.00010412
0.001020446	0.99964268	0.00010991
0.001033202	0.99961959	0.00011591
0.00104628	0.9995981	0.00012052
0.001059694	0.99957583	0.00012299
0.001073456	0.99955503	0.00013095
0.001087581	0.99953503	0.0001341
0.001102082	0.99951456	0.00013763
0.001116975	0.99949195	0.00014733
0.001132276	0.99947624	0.00015232
0.001148002	0.99944661	0.00015651
0.001164171	0.99942687	0.00016298
0.001180802	0.99940477	0.00016567
0.001197915	0.99938116	0.00017517
0.001215531	0.99935688	0.00018203
0.001233674	0.99933345	0.00019099
0.001252366	0.99931002	0.00019988
0.001271633	0.99928588	0.00020721
0.00129083	0.9992601	0.00021448
0.001312002	0.99922752	0.00022377
0.001333163	0.99919935	0.00023708
0.001355018	0.99917303	0.00024406
0.001377602	0.99914458	0.00025414
0.001400951	0.99911094	0.00026241
0.001425106	0.99907636	0.00027294
0.001450107	0.99903999	0.0002843
0.001476002	0.99900164	0.00029666
0.001503476	0.99896023	0.00031049
0.001530669	0.99891857	0.00032498
0.00155955	0.99887366	0.00034128
0.001589541	0.99882643	0.00035921
0.001620708	0.99877679	0.00037893
0.001653122	0.99872455	0.00040061
0.00168686	0.99866985	0.0004244
0.001722003	0.99861247	0.00045047
0.001758641	0.99855235	0.00047898
0.001796872	0.99848935	0.00051008
0.001828756	0.99843663	0.00053702
0.001878548	0.99835427	0.000581
0.001922235	0.99828332	0.00061875
0.001968003	0.99820369	0.00066269
0.002016003	0.99812483	0.00071051
0.002066403	0.99804055	0.0007619
0.002119388	0.99795082	0.00082083
0.002175161	0.99786109	0.00087969
0.002233949	0.99778343	0.00094717
0.002270773	0.99772426	0.00094481
0.002277028	0.99770616	0.00095178
0.002283318	0.99769236	0.00096224
0.002289643	0.99767676	0.00096771
0.002296003	0.99766326	0.00097332
0.002302399	0.9976464	0.00098284
0.00230883	0.99762973	0.00099373
0.002315298	0.99762339	0.0010113
0.002321801	0.99761974	0.0010145
0.002328342	0.99760894	0.0010195
0.002334919	0.99759636	0.0010249
0.002341533	0.99759007	0.0010394
0.002348185	0.9975801	0.0010221
0.002354875	0.99755524	0.0010283
0.002361604	0.99753738	0.0010343
0.00236837	0.99751681	0.0010438
0.002375176	0.99748905	0.0010725
0.002388905	0.99748092	0.0010875
0.002402794	0.99745921	0.001102
0.002416846	0.99743012	0.001116
0.002431062	0.99739794	0.0011325
0.002445447	0.99737358	0.0011678
0.002460004	0.99735519	0.0011844
0.002474734	0.99733117	0.0012009
0.002489642	0.99730709	0.0012178
0.002504731	0.99728038	0.001236
0.002520004	0.99725338	0.0012517
0.002535464	0.99722643	0.0012713
0.002551115	0.99719801	0.0012888
0.00256696	0.99716995	0.0013087
0.002583004	0.99714013	0.0013272
0.002599249	0.99711063	0.0013497
0.0026157	0.99708133	0.0013705
0.002632361	0.99704821	0.0013913
0.002649235	0.99701615	0.0014164
0.002666327	0.99699663	0.0014793
0.00268364	0.99699347	0.001428
0.002701181	0.99694583	0.0015161
0.002718951	0.99690846	0.0014606
0.002736958	0.99685164	0.0015231
0.002755204	0.99682952	0.0015477
0.002773695	0.99680073	0.0015729
0.002792437	0.99677272	0.0015978
0.002811433	0.99674346	0.0016194
0.002830689	0.99671162	0.0016384
0.002850211	0.99667668	0.0016565
0.002870004	0.99663847	0.0016768
0.002890074	0.99659955	0.0016976
0.002910427	0.99655722	0.0017189
0.002931068	0.99651259	0.0017441
0.002952004	0.99646911	0.0017704
0.002973242	0.99642436	0.0017972
0.002994787	0.99637826	0.0018263
0.003016647	0.99633169	0.0018569
0.003038828	0.99628691	0.0018895
0.003061338	0.9962433	0.0019195
0.003084184	0.99619081	0.0019485
0.003107373	0.99613955	0.0020093
0.003130914	0.99609049	0.0020156
0.003154814	0.99604729	0.0020647
0.003179082	0.99600107	0.0020988
0.003203726	0.99595136	0.0021344
0.003228755	0.99590202	0.0021718
0.003254178	0.99585052	0.0022108
0.003280005	0.99579627	0.0022502
0.003306245	0.99574407	0.0022902
0.003332908	0.99569246	0.0023314
0.003360005	0.99563843	0.0023726
0.003387546	0.99558329	0.0024144
0.003415542	0.99552674	0.0024564
0.003444005	0.99547089	0.002503
0.003472946	0.99541385	0.0025459
0.003502378	0.99535365	0.0025892
0.003532313	0.9953105	0.0026328
0.003562764	0.99523791	0.002652
0.003593745	0.99516181	0.0027195
0.003625269	0.99509065	0.0027654
0.003657351	0.99501633	0.0028179
0.003690006	0.9949433	0.0028722
0.003723249	0.99486999	0.0029299
0.003757097	0.99479791	0.0029867
0.003791565	0.99471884	0.0030398
0.003826672	0.99463066	0.0031004
0.003862436	0.99454167	0.0031784
0.003898874	0.99446384	0.0032623
0.003925662	0.99439034	0.003361
0.003936006	0.99441216	0.0033798
0.0039454	0.99441283	0.0033936
0.003954839	0.99440755	0.0034017
0.003964323	0.99439618	0.0034085
0.003973852	0.99438444	0.0034184
0.003983428	0.99436979	0.0034262
0.00399305	0.99435589	0.0034355
0.004002718	0.99434035	0.0034453
0.004012433	0.99432607	0.003454
0.004022196	0.99430907	0.003463
0.004032006	0.99429062	0.0034674
0.004041864	0.99426941	0.0034746
0.004051771	0.99424764	0.0034805
0.004061726	0.99422615	0.0034897
0.00407173	0.9942027	0.0034938
0.004081784	0.99417485	0.0035008
0.004091887	0.99414315	0.0035078
0.004102041	0.99411478	0.0035218
0.004112245	0.99408743	0.0035326
0.0041225	0.99405651	0.0035479
0.004132806	0.99402947	0.0035602
0.004143164	0.99399854	0.0035743
0.004153574	0.99396738	0.003596
0.004164037	0.9939433	0.0036075
0.004174552	0.99391082	0.0036241
0.00418512	0.99388068	0.0036478
0.004195742	0.99385742	0.003669
0.004206419	0.99382927	0.0036853
0.004217149	0.99380324	0.003706
0.004227935	0.99378343	0.0037247
0.004238776	0.99376242	0.0037368
0.004249672	0.99374225	0.0037542
0.004260625	0.99372147	0.0037585
0.004271634	0.99369224	0.0037543
0.004282701	0.9936345	0.0037565
0.004293825	0.99359453	0.0038018
0.004305007	0.99356839	0.0038222
0.004316247	0.99356372	0.0037954
0.004327546	0.99343314	0.0038231
0.004338904	0.99335808	0.0039849
0.004350322	0.99364687	0.004007
0.004361801	0.99352801	0.0037321
0.00437334	0.99325934	0.0037868
0.00438494	0.9932382	0.0039327
0.004396602	0.99322755	0.0039725
0.004408327	0.99320566	0.0040049
0.004420114	0.99317388	0.0040332
0.004431964	0.9931481	0.0040627
0.004443878	0.99311502	0.004084
0.004455856	0.99308106	0.0041125
0.004467899	0.99304907	0.0041386
0.004480007	0.99301318	0.0041643
0.004492181	0.99297889	0.0041969
0.004504421	0.99294474	0.004224
0.004516728	0.99291143	0.0042538
0.004529103	0.99287722	0.0042811
0.004541545	0.99284318	0.0043096
0.004554056	0.99280903	0.0043371
0.004566637	0.99276955	0.0043651
0.004579287	0.99273525	0.004398
0.004592007	0.99270044	0.0044293
0.004604798	0.99266755	0.0044619
0.004617661	0.99263083	0.0044872
0.004630595	0.99259488	0.0045228
0.004643603	0.99256122	0.0045494
0.004656683	0.992526	0.0045811
0.004669838	0.99248913	0.0046146
0.004683067	0.99245539	0.0046457
0.004696371	0.99241651	0.004674
0.004709751	0.99237859	0.0047113
0.004723207	0.99234228	0.004744
0.004736741	0.99230936	0.004782
0.004750352	0.99227775	0.0048127
0.004805589	0.99212602	0.0049404
0.004920007	0.99181218	0.0052204
0.005040008	0.99147659	0.0055317
0.005166008	0.99112915	0.0058698
0.00529847	0.99075817	0.0062467
0.005437903	0.99038043	0.0066622
0.005584873	0.98996786	0.00711
0.005740009	0.98954751	0.0076009
0.005904009	0.98908898	0.008135
0.006077656	0.9885798	0.0087012
0.006261828	0.98786755	0.0093953
0.006468965	0.98712314	0.010329
0.00656001	0.98670628	0.010708
0.006665817	0.9860412	0.011289
0.006775092	0.98528703	0.012184
0.00688801	0.98434973	0.013416
0.007004756	0.98318902	0.015586
0.007125528	0.98293881	0.01994
0.007182285	0.98424769	0.022607
0.007197921	0.9849957	0.023249
0.007213625	0.98577915	0.02384
0.007229399	0.98670025	0.024157
0.007245241	0.98756807	0.024263
0.007261153	0.98834022	0.024279
0.007277135	0.9889782	0.02413
0.007293187	0.98950393	0.024042
0.007309311	0.98996827	0.023958
0.007325506	0.99025622	0.023907
0.007341773	0.99039379	0.02398
0.007358112	0.99071255	0.024379
0.007374524	0.99137162	0.024827
0.00739101	0.99211417	0.024988
0.007407569	0.99281165	0.025081
0.007424203	0.99349437	0.025245
0.007440911	0.99433383	0.025439
0.007457695	0.99531428	0.025485
0.007474555	0.99636097	0.025477
0.007491492	0.99762992	0.025353
0.007508505	0.99905354	0.024944
0.007525596	1.0004606	0.024049
0.007542764	1.0016504	0.022969
0.007560011	1.0028516	0.021432
0.007577338	1.0033626	0.01928
0.007594743	1.0030785	0.017388
0.007612229	1.0023269	0.015913
0.007629796	1.0018573	0.014811
0.007647444	1.000495	0.013079
0.007665174	0.99799777	0.012836
0.007682986	0.99591397	0.01472
0.007700881	0.99699537	0.018481
0.00771886	1.0016214	0.01783
0.007736923	1.002104	0.013927
0.00775507	1.0000711	0.012293
0.007773303	0.99817866	0.0126
0.007791622	0.99748178	0.014935
0.007810028	1.0016854	0.015569
0.00782852	1.0005119	0.011666
0.0078471	0.99895665	0.01455
0.007865769	1.005731	0.014076
0.007884527	1.004498	0.0071111
0.007903374	1.0011216	0.0055397
0.007922312	0.99900039	0.0053782
0.007941341	0.99755396	0.0054916
0.007960461	0.99649764	0.0056593
0.007979674	0.99564383	0.00585
0.00799898	0.99495912	0.0060244
0.008018379	0.99436988	0.0061974
0.008037873	0.99384096	0.0063383
0.008057461	0.99338532	0.0064863
0.008077146	0.99295374	0.0066126
0.008096927	0.99255004	0.0067625
0.008130111	0.99195837	0.006973333
0.008190533	0.99102774	0.00733
0.008318295	0.98953242	0.008046667
0.008492068	0.9880396	0.008826667
0.008670223	0.98678239	0.00952
0.008856013	0.98559661	0.01024
0.009049941	0.98448299	0.010993333
0.00924566	0.98351903	0.011813333
0.009465687	0.98253711	0.012706667
0.00969095	0.98163384	0.013646667
0.009921575	0.98091096	0.01456
0.010157689	0.98020473	0.0154
0.01039942	0.97949723	0.016113333
0.010646906	0.97873763	0.016813333
0.01090028	0.97786213	0.017526667
0.011159683	0.97698939	0.018306667
0.011425261	0.97607221	0.019066667
0.011697159	0.97514028	0.01986
0.011975527	0.97418145	0.02068
0.01226052	0.97315963	0.021493333
0.012552294	0.97205585	0.022373333
0.012851013	0.97100833	0.023266667
0.013156841	0.9698411	0.024126667
0.013476542	0.96862336	0.02512565
0.013930808	0.9669103	0.02648159
0.014416766	0.96486922	0.0279501
0.014937854	0.96254816	0.02920321
0.015498023	0.95998714	0.03095042
0.016101843	0.95699115	0.03264779
0.01675462	0.9533222	0.03455082
0.017462562	0.94904744	0.03697605
0.018232969	0.94384916	0.03991472
0.01907449	0.93796205	0.04362917
0.01999745	0.93076248	0.0479646
0.021014269	0.92177646	0.05393383
0.022140033	0.91143629	0.06248108
0.023393243	0.89999843	0.07318736
0.024796837	0.88500257	0.08745383
0.026101934	0.86892795	0.1070007
0.026953084	0.86041052	0.1222073
0.027861615	0.85018607	0.139893
0.028833532	0.84330548	0.1646599
0.029875708	0.83510087	0.1934093
0.030996047	0.83950154	0.2333
0.032203685	0.85248728	0.28
0.03350924	0.890242	0.32769031
0.034925123	0.95294371	0.34180497
0.036465937	0.99110174	0.33005048
0.038148981	1.0289144	0.33447484
0.039994899	1.0799444	0.30435407
0.042028538	1.0809235	0.25245167
0.044280067	1.0687171	0.24776754
0.046786486	1.0777579	0.24714796
0.049593675	1.1087751	0.22549553
0.052759229	1.1068622	0.15421415
0.056356449	1.0368664	0.099440098
0.060480091	0.95132077	0.11024904
0.065254835	0.87643558	0.14098558
0.072931875	0.78294558	0.22304692
0.079989798	0.68072359	0.33013643
0.088560134	0.62269686	0.48811707
0.09918735	0.65830269	0.73229996
0.123984187	0.86125835	1.0578624
0.177120268	1.3752562	1.272214
0.309960469	1.4490819	1.5286501
