Material: main / He / Smith
Optical constants. P. L. Smith, M. C. E. Huber, W. H. Parkinson. Refractivities of H2, He, O2, CO, and Kr for 168≤λ≤288 nm Phys Rev. A 13, 199-203 (1976)
Comments: Standard conditions: 0 °C (273.15 K), 760 torr (101.325 kPa).
Specs: {"n_absolute": true, "wavelength_vacuum": true, "temperature": "0 °C", "pressure": "101325 Pa"}
wavelength (um)	n
0.16796	1.00003782
0.16846	1.00003781
0.16991	1.00003774
0.17016	1.00003771
0.17044	1.00003770
0.17134	1.00003766
0.17226	1.00003765
0.17427	1.00003746
0.17709	1.00003745
0.18475	1.00003719
0.18507	1.00003717
0.19013	1.00003705
0.19832	1.00003675
0.19890	1.00003678
0.20588	1.00003663
0.21248	1.00003648
0.22087	1.00003632
0.22116	1.00003631
0.22174	1.00003634
0.24359	1.00003597
0.25077	1.00003589
0.25169	1.00003591
0.25293	1.00003587
0.26321	1.00003574
0.28824	1.00003554
