Material: main / Ar / Larsen
Optical constants. T. Larsén. Beitrag zur Dispersion der Edelgase. Z. Physik 88, 389-394 (1934)
Comments: Standard conditions: 0 °C, 760 torr (101.325 kPa).
Specs: {"n_absolute": true, "wavelength_vacuum": true, "temperature": "0 °C", "pressure": "101325 Pa"}
wavelength (um)	n
0.230283	1.000309311
0.234617	1.000307956
0.238074	1.000306977
0.244765	1.000305164
0.246481	1.000304718
0.257707	1.000302107
0.267578	1.000300115
0.275360	1.000298742
0.276054	1.000298605
0.289445	1.000296522
0.292625	1.000296083
0.334244	1.000291437
0.380272	1.000288151
0.410925	1.000286541
0.491741	1.000283764
0.546225	1.000282550
0.567740	1.000282175
