Material: main / Ar / Sinnock-liquid-88K
Optical constants. A. C. Sinnock and B. L. Smith. Refractive indices of the condensed inert gases, Phys. Rev. 181, 1297-1307 (1969)
Comments: Liquid argon at 88 K (-185.15 Â°C).
Specs: {"temperature": "88 K"}
wavelength (um)	n
0.3612	1.2349
0.3650	1.2346
0.4063	1.2326
0.4358	1.2315
0.4753	1.2303
0.5086	1.2295
0.5461	1.2287
0.5780	1.2282
0.6439	1.2274
