Material: main / Ar / Sinnock-solid-80K
Optical constants. A. C. Sinnock and B. L. Smith. Refractive indices of the condensed inert gases, Phys. Rev. 181, 1297-1307 (1969)
Comments: Solid argon at 80 K (-193.15 Â°C).
Specs: {"temperature": "80 K"}
wavelength (um)	n
0.3612	1.2773
0.3650	1.2771
0.4063	1.2748
0.4358	1.2736
0.4753	1.2724
0.5086	1.2716
0.5461	1.2708
0.5780	1.2702
0.6439	1.2693
