Material: main / Ar / Sinnock-solid-83.81K
Optical constants. A. C. Sinnock and B. L. Smith. Refractive indices of the condensed inert gases, Phys. Rev. 181, 1297-1307 (1969)
Comments: Solid argon at 83.81 K (-189.34 Â°C, melting point).
Specs: {"temperature": "83.81 K"}
wavelength (um)	n
0.3612	1.2753
0.3650	1.2750
0.4063	1.2728
0.4358	1.2716
0.4753	1.2704
0.5086	1.2695
0.5461	1.2688
0.5780	1.2681
0.6439	1.2673
