Material: main / Ar / Sinnock-liquid-86K
Optical constants. A. C. Sinnock and B. L. Smith. Refractive indices of the condensed inert gases, Phys. Rev. 181, 1297-1307 (1969)
Comments: Liquid argon at 86 K (-187.15 Â°C).
Specs: {"temperature": "86 K"}
wavelength (um)	n
0.3612	1.2370
0.3650	1.2367
0.4063	1.2347
0.4358	1.2336
0.4753	1.2324
0.5086	1.2316
0.5461	1.2308
0.5780	1.2303
0.6439	1.2295
