Material: main / Ar / Sinnock-solid-20K
Optical constants. A. C. Sinnock and B. L. Smith. Refractive indices of the condensed inert gases, Phys. Rev. 181, 1297-1307 (1969)
Comments: Solid argon at 20 K (-253.15 Â°C).
Specs: {"temperature": "20 K"}
wavelength (um)	n
0.3612	1.2975
0.3650	1.2972
0.4063	1.2950
0.4358	1.2938
0.4753	1.2926
0.5086	1.2918
0.5461	1.2910
0.5780	1.2903
0.6439	1.2895
