Material: main / Ar / Sinnock-liquid-83.81K
Optical constants. A. C. Sinnock and B. L. Smith. Refractive indices of the condensed inert gases, Phys. Rev. 181, 1297-1307 (1969)
Comments: Liquid argon at 83.81 K (-189.34 Â°C, melting point).
Specs: {"temperature": "83.81 K"}
wavelength (um)	n
0.3612	1.2395
0.3650	1.2392
0.4063	1.2372
0.4358	1.2361
0.4753	1.2349
0.5086	1.2341
0.5461	1.2334
0.5780	1.2328
0.6439	1.2321
