Material: main / Ar / Sinnock-solid-40K
Optical constants. A. C. Sinnock and B. L. Smith. Refractive indices of the condensed inert gases, Phys. Rev. 181, 1297-1307 (1969)
Comments: Solid argon at 40 K (-233.15 Â°C).
Specs: {"temperature": "40 K"}
wavelength (um)	n
0.3612	1.2934
0.3650	1.2931
0.4063	1.2909
0.4358	1.2896
0.4753	1.2885
0.5086	1.2876
0.5461	1.2869
0.5780	1.2862
0.6439	1.2854
