Material: main / Ar / Sinnock-solid-50K
Optical constants. A. C. Sinnock and B. L. Smith. Refractive indices of the condensed inert gases, Phys. Rev. 181, 1297-1307 (1969)
Comments: Solid argon at 50 K (-223.15 Â°C).
Specs: {"temperature": "50 K"}
wavelength (um)	n
0.3612	1.2903
0.3650	1.2900
0.4063	1.2878
0.4358	1.2865
0.4753	1.2853
0.5086	1.2845
0.5461	1.2838
0.5780	1.2831
0.6439	1.2822
