Material: main / Ar / Sinnock-liquid-90K
Optical constants. A. C. Sinnock and B. L. Smith. Refractive indices of the condensed inert gases, Phys. Rev. 181, 1297-1307 (1969)
Comments: Liquid argon at 90 K (-183.15 Â°C).
Specs: {"temperature": "90 K"}
wavelength (um)	n
0.3612	1.2326
0.3650	1.2331
0.4063	1.2308
0.4358	1.2297
0.4753	1.2285
0.5086	1.2277
0.5461	1.2269
0.5780	1.2264
0.6439	1.2256
