Material: main / Ar / Sinnock-solid-60K
Optical constants. A. C. Sinnock and B. L. Smith. Refractive indices of the condensed inert gases, Phys. Rev. 181, 1297-1307 (1969)
Comments: Solid argon at 60 K (-213.15 Â°C).
Specs: {"temperature": "60 K"}
wavelength (um)	n
0.3612	1.2866
0.3650	1.2863
0.4063	1.2841
0.4358	1.2829
0.4753	1.2817
0.5086	1.2809
0.5461	1.2801
0.5780	1.2795
0.6439	1.2786
