Material: main / W / Rakic-LD
Optical constants. A. D. Rakić, A. B. Djurišic, J. M. Elazar, and M. L. Majewski. Optical properties of metallic films for vertical-cavity optoelectronic devices, Appl. Opt. 37, 5271-5283 (1998)[Calculation script (Python)]
Comments: Fit of experimental data from several sources to Lorentz-Drude (LD) model
Specs: {"n_absolute": true, "wavelength_vacuum": true}
wavelength (um)	n	k
2.4797e-01	2.7211e+00	2.2959e+00
2.5090e-01	2.7253e+00	2.3015e+00
2.5386e-01	2.7301e+00	2.3081e+00
2.5686e-01	2.7355e+00	2.3156e+00
2.5990e-01	2.7416e+00	2.3240e+00
2.6297e-01	2.7485e+00	2.3332e+00
2.6608e-01	2.7562e+00	2.3430e+00
2.6922e-01	2.7648e+00	2.3534e+00
2.7240e-01	2.7743e+00	2.3643e+00
2.7562e-01	2.7848e+00	2.3755e+00
2.7888e-01	2.7961e+00	2.3870e+00
2.8217e-01	2.8084e+00	2.3986e+00
2.8551e-01	2.8217e+00	2.4103e+00
2.8888e-01	2.8358e+00	2.4220e+00
2.9230e-01	2.8509e+00	2.4334e+00
2.9575e-01	2.8667e+00	2.4447e+00
2.9925e-01	2.8834e+00	2.4556e+00
3.0278e-01	2.9009e+00	2.4660e+00
3.0636e-01	2.9190e+00	2.4760e+00
3.0998e-01	2.9377e+00	2.4854e+00
3.1364e-01	2.9570e+00	2.4941e+00
3.1735e-01	2.9766e+00	2.5021e+00
3.2110e-01	2.9967e+00	2.5094e+00
3.2489e-01	3.0170e+00	2.5159e+00
3.2873e-01	3.0374e+00	2.5216e+00
3.3262e-01	3.0579e+00	2.5264e+00
3.3655e-01	3.0783e+00	2.5304e+00
3.4053e-01	3.0986e+00	2.5337e+00
3.4455e-01	3.1186e+00	2.5360e+00
3.4862e-01	3.1383e+00	2.5377e+00
3.5274e-01	3.1575e+00	2.5386e+00
3.5691e-01	3.1762e+00	2.5388e+00
3.6113e-01	3.1942e+00	2.5383e+00
3.6540e-01	3.2116e+00	2.5373e+00
3.6971e-01	3.2281e+00	2.5358e+00
3.7408e-01	3.2439e+00	2.5340e+00
3.7850e-01	3.2587e+00	2.5317e+00
3.8298e-01	3.2726e+00	2.5293e+00
3.8750e-01	3.2856e+00	2.5267e+00
3.9208e-01	3.2976e+00	2.5241e+00
3.9671e-01	3.3085e+00	2.5216e+00
4.0140e-01	3.3185e+00	2.5193e+00
4.0614e-01	3.3275e+00	2.5172e+00
4.1094e-01	3.3354e+00	2.5156e+00
4.1580e-01	3.3425e+00	2.5144e+00
4.2071e-01	3.3487e+00	2.5138e+00
4.2569e-01	3.3540e+00	2.5138e+00
4.3072e-01	3.3585e+00	2.5147e+00
4.3581e-01	3.3623e+00	2.5164e+00
4.4096e-01	3.3654e+00	2.5190e+00
4.4617e-01	3.3681e+00	2.5226e+00
4.5144e-01	3.3703e+00	2.5273e+00
4.5677e-01	3.3721e+00	2.5331e+00
4.6217e-01	3.3738e+00	2.5400e+00
4.6763e-01	3.3753e+00	2.5481e+00
4.7316e-01	3.3769e+00	2.5574e+00
4.7875e-01	3.3786e+00	2.5679e+00
4.8441e-01	3.3807e+00	2.5795e+00
4.9013e-01	3.3832e+00	2.5922e+00
4.9592e-01	3.3863e+00	2.6060e+00
5.0178e-01	3.3901e+00	2.6208e+00
5.0771e-01	3.3947e+00	2.6365e+00
5.1371e-01	3.4002e+00	2.6530e+00
5.1978e-01	3.4069e+00	2.6701e+00
5.2593e-01	3.4146e+00	2.6878e+00
5.3214e-01	3.4237e+00	2.7058e+00
5.3843e-01	3.4340e+00	2.7240e+00
5.4479e-01	3.4456e+00	2.7422e+00
5.5123e-01	3.4586e+00	2.7601e+00
5.5774e-01	3.4728e+00	2.7777e+00
5.6434e-01	3.4884e+00	2.7945e+00
5.7100e-01	3.5051e+00	2.8105e+00
5.7775e-01	3.5229e+00	2.8255e+00
5.8458e-01	3.5417e+00	2.8391e+00
5.9149e-01	3.5612e+00	2.8514e+00
5.9848e-01	3.5812e+00	2.8620e+00
6.0555e-01	3.6016e+00	2.8709e+00
6.1270e-01	3.6221e+00	2.8780e+00
6.1995e-01	3.6424e+00	2.8831e+00
6.2727e-01	3.6622e+00	2.8863e+00
6.3468e-01	3.6813e+00	2.8876e+00
6.4218e-01	3.6994e+00	2.8870e+00
6.4977e-01	3.7161e+00	2.8845e+00
6.5745e-01	3.7312e+00	2.8804e+00
6.6522e-01	3.7445e+00	2.8747e+00
6.7308e-01	3.7557e+00	2.8676e+00
6.8103e-01	3.7646e+00	2.8594e+00
6.8908e-01	3.7711e+00	2.8503e+00
6.9723e-01	3.7748e+00	2.8405e+00
7.0546e-01	3.7759e+00	2.8303e+00
7.1380e-01	3.7741e+00	2.8201e+00
7.2224e-01	3.7694e+00	2.8100e+00
7.3077e-01	3.7617e+00	2.8004e+00
7.3941e-01	3.7511e+00	2.7916e+00
7.4814e-01	3.7377e+00	2.7839e+00
7.5699e-01	3.7214e+00	2.7775e+00
7.6593e-01	3.7023e+00	2.7727e+00
7.7498e-01	3.6807e+00	2.7699e+00
7.8414e-01	3.6565e+00	2.7691e+00
7.9341e-01	3.6300e+00	2.7708e+00
8.0278e-01	3.6014e+00	2.7750e+00
8.1227e-01	3.5708e+00	2.7821e+00
8.2187e-01	3.5385e+00	2.7922e+00
8.3158e-01	3.5047e+00	2.8055e+00
8.4141e-01	3.4697e+00	2.8222e+00
8.5135e-01	3.4338e+00	2.8424e+00
8.6141e-01	3.3972e+00	2.8661e+00
8.7159e-01	3.3604e+00	2.8936e+00
8.8189e-01	3.3236e+00	2.9248e+00
8.9231e-01	3.2873e+00	2.9598e+00
9.0285e-01	3.2517e+00	2.9985e+00
9.1352e-01	3.2173e+00	3.0409e+00
9.2432e-01	3.1844e+00	3.0869e+00
9.3524e-01	3.1535e+00	3.1363e+00
9.4629e-01	3.1248e+00	3.1888e+00
9.5748e-01	3.0988e+00	3.2442e+00
9.6879e-01	3.0758e+00	3.3023e+00
9.8024e-01	3.0560e+00	3.3625e+00
9.9182e-01	3.0396e+00	3.4246e+00
1.0035e+00	3.0270e+00	3.4880e+00
1.0154e+00	3.0182e+00	3.5523e+00
1.0274e+00	3.0133e+00	3.6169e+00
1.0395e+00	3.0124e+00	3.6813e+00
1.0518e+00	3.0153e+00	3.7449e+00
1.0643e+00	3.0219e+00	3.8072e+00
1.0768e+00	3.0321e+00	3.8677e+00
1.0896e+00	3.0455e+00	3.9257e+00
1.1024e+00	3.0617e+00	3.9807e+00
1.1155e+00	3.0802e+00	4.0323e+00
1.1286e+00	3.1006e+00	4.0801e+00
1.1420e+00	3.1222e+00	4.1236e+00
1.1555e+00	3.1443e+00	4.1627e+00
1.1691e+00	3.1661e+00	4.1971e+00
1.1829e+00	3.1869e+00	4.2268e+00
1.1969e+00	3.2059e+00	4.2519e+00
1.2111e+00	3.2222e+00	4.2725e+00
1.2254e+00	3.2350e+00	4.2890e+00
1.2399e+00	3.2436e+00	4.3018e+00
1.2545e+00	3.2474e+00	4.3114e+00
1.2693e+00	3.2457e+00	4.3186e+00
1.2843e+00	3.2380e+00	4.3241e+00
1.2995e+00	3.2241e+00	4.3286e+00
1.3149e+00	3.2036e+00	4.3332e+00
1.3304e+00	3.1764e+00	4.3386e+00
1.3461e+00	3.1426e+00	4.3457e+00
1.3620e+00	3.1024e+00	4.3555e+00
1.3781e+00	3.0560e+00	4.3687e+00
1.3944e+00	3.0037e+00	4.3861e+00
1.4109e+00	2.9462e+00	4.4085e+00
1.4276e+00	2.8839e+00	4.4363e+00
1.4444e+00	2.8176e+00	4.4702e+00
1.4615e+00	2.7478e+00	4.5104e+00
1.4788e+00	2.6754e+00	4.5575e+00
1.4962e+00	2.6010e+00	4.6114e+00
1.5139e+00	2.5255e+00	4.6723e+00
1.5318e+00	2.4495e+00	4.7401e+00
1.5499e+00	2.3737e+00	4.8147e+00
1.5682e+00	2.2988e+00	4.8959e+00
1.5868e+00	2.2253e+00	4.9834e+00
1.6055e+00	2.1536e+00	5.0768e+00
1.6245e+00	2.0843e+00	5.1757e+00
1.6437e+00	2.0175e+00	5.2797e+00
1.6631e+00	1.9536e+00	5.3884e+00
1.6828e+00	1.8927e+00	5.5014e+00
1.7027e+00	1.8350e+00	5.6182e+00
1.7228e+00	1.7804e+00	5.7384e+00
1.7431e+00	1.7290e+00	5.8618e+00
1.7637e+00	1.6808e+00	5.9880e+00
1.7846e+00	1.6356e+00	6.1167e+00
1.8057e+00	1.5935e+00	6.2476e+00
1.8270e+00	1.5543e+00	6.3806e+00
1.8486e+00	1.5179e+00	6.5153e+00
1.8704e+00	1.4842e+00	6.6517e+00
1.8925e+00	1.4531e+00	6.7896e+00
1.9149e+00	1.4244e+00	6.9289e+00
1.9375e+00	1.3981e+00	7.0695e+00
1.9604e+00	1.3740e+00	7.2113e+00
1.9836e+00	1.3520e+00	7.3542e+00
2.0070e+00	1.3321e+00	7.4981e+00
2.0307e+00	1.3141e+00	7.6431e+00
2.0547e+00	1.2978e+00	7.7891e+00
2.0790e+00	1.2834e+00	7.9361e+00
2.1036e+00	1.2705e+00	8.0840e+00
2.1285e+00	1.2593e+00	8.2329e+00
2.1536e+00	1.2496e+00	8.3827e+00
2.1791e+00	1.2413e+00	8.5335e+00
2.2048e+00	1.2343e+00	8.6852e+00
2.2309e+00	1.2287e+00	8.8378e+00
2.2572e+00	1.2244e+00	8.9914e+00
2.2839e+00	1.2213e+00	9.1460e+00
2.3109e+00	1.2194e+00	9.3016e+00
2.3382e+00	1.2186e+00	9.4582e+00
2.3658e+00	1.2189e+00	9.6158e+00
2.3938e+00	1.2203e+00	9.7744e+00
2.4221e+00	1.2227e+00	9.9342e+00
2.4507e+00	1.2262e+00	1.0095e+01
2.4797e+00	1.2306e+00	1.0257e+01
2.5090e+00	1.2360e+00	1.0420e+01
2.5386e+00	1.2423e+00	1.0584e+01
2.5686e+00	1.2495e+00	1.0750e+01
2.5990e+00	1.2577e+00	1.0916e+01
2.6297e+00	1.2667e+00	1.1084e+01
2.6607e+00	1.2767e+00	1.1253e+01
2.6922e+00	1.2875e+00	1.1424e+01
2.7240e+00	1.2991e+00	1.1595e+01
2.7562e+00	1.3116e+00	1.1768e+01
2.7888e+00	1.3249e+00	1.1943e+01
2.8217e+00	1.3391e+00	1.2119e+01
2.8551e+00	1.3541e+00	1.2296e+01
2.8888e+00	1.3700e+00	1.2475e+01
2.9229e+00	1.3866e+00	1.2655e+01
2.9575e+00	1.4041e+00	1.2836e+01
2.9924e+00	1.4225e+00	1.3019e+01
3.0278e+00	1.4416e+00	1.3204e+01
3.0636e+00	1.4616e+00	1.3390e+01
3.0998e+00	1.4824e+00	1.3578e+01
3.1364e+00	1.5041e+00	1.3767e+01
3.1735e+00	1.5266e+00	1.3958e+01
3.2110e+00	1.5499e+00	1.4151e+01
3.2489e+00	1.5741e+00	1.4345e+01
3.2873e+00	1.5992e+00	1.4541e+01
3.3261e+00	1.6251e+00	1.4739e+01
3.3654e+00	1.6519e+00	1.4939e+01
3.4052e+00	1.6796e+00	1.5140e+01
3.4455e+00	1.7082e+00	1.5343e+01
3.4862e+00	1.7377e+00	1.5548e+01
3.5274e+00	1.7681e+00	1.5755e+01
3.5691e+00	1.7994e+00	1.5964e+01
3.6112e+00	1.8316e+00	1.6175e+01
3.6539e+00	1.8649e+00	1.6387e+01
3.6971e+00	1.8990e+00	1.6602e+01
3.7408e+00	1.9342e+00	1.6818e+01
3.7850e+00	1.9703e+00	1.7037e+01
3.8297e+00	2.0075e+00	1.7257e+01
3.8750e+00	2.0457e+00	1.7480e+01
3.9207e+00	2.0849e+00	1.7705e+01
3.9671e+00	2.1252e+00	1.7931e+01
4.0140e+00	2.1665e+00	1.8160e+01
4.0614e+00	2.2090e+00	1.8391e+01
4.1094e+00	2.2525e+00	1.8624e+01
4.1579e+00	2.2972e+00	1.8860e+01
4.2071e+00	2.3430e+00	1.9097e+01
4.2568e+00	2.3900e+00	1.9337e+01
4.3071e+00	2.4381e+00	1.9579e+01
4.3580e+00	2.4875e+00	1.9823e+01
4.4095e+00	2.5381e+00	2.0070e+01
4.4616e+00	2.5899e+00	2.0319e+01
4.5143e+00	2.6431e+00	2.0570e+01
4.5677e+00	2.6975e+00	2.0824e+01
4.6217e+00	2.7532e+00	2.1080e+01
4.6763e+00	2.8103e+00	2.1339e+01
4.7315e+00	2.8687e+00	2.1600e+01
4.7874e+00	2.9286e+00	2.1863e+01
4.8440e+00	2.9898e+00	2.2129e+01
4.9013e+00	3.0525e+00	2.2397e+01
4.9592e+00	3.1167e+00	2.2668e+01
5.0178e+00	3.1823e+00	2.2941e+01
5.0771e+00	3.2495e+00	2.3217e+01
5.1371e+00	3.3182e+00	2.3496e+01
5.1978e+00	3.3885e+00	2.3777e+01
5.2592e+00	3.4605e+00	2.4061e+01
5.3213e+00	3.5340e+00	2.4347e+01
5.3842e+00	3.6093e+00	2.4636e+01
5.4479e+00	3.6862e+00	2.4928e+01
5.5122e+00	3.7648e+00	2.5222e+01
5.5774e+00	3.8453e+00	2.5519e+01
5.6433e+00	3.9275e+00	2.5819e+01
5.7100e+00	4.0115e+00	2.6122e+01
5.7774e+00	4.0974e+00	2.6427e+01
5.8457e+00	4.1852e+00	2.6735e+01
5.9148e+00	4.2749e+00	2.7046e+01
5.9847e+00	4.3666e+00	2.7360e+01
6.0554e+00	4.4603e+00	2.7676e+01
6.1270e+00	4.5560e+00	2.7995e+01
6.1994e+00	4.6538e+00	2.8318e+01
6.2726e+00	4.7537e+00	2.8643e+01
6.3468e+00	4.8557e+00	2.8971e+01
6.4218e+00	4.9599e+00	2.9302e+01
6.4976e+00	5.0663e+00	2.9635e+01
6.5744e+00	5.1750e+00	2.9972e+01
6.6521e+00	5.2860e+00	3.0312e+01
6.7307e+00	5.3993e+00	3.0654e+01
6.8103e+00	5.5150e+00	3.1000e+01
6.8907e+00	5.6331e+00	3.1348e+01
6.9722e+00	5.7536e+00	3.1699e+01
7.0546e+00	5.8767e+00	3.2054e+01
7.1379e+00	6.0023e+00	3.2411e+01
7.2223e+00	6.1304e+00	3.2772e+01
7.3076e+00	6.2612e+00	3.3135e+01
7.3940e+00	6.3946e+00	3.3501e+01
7.4813e+00	6.5308e+00	3.3871e+01
7.5698e+00	6.6697e+00	3.4243e+01
7.6592e+00	6.8113e+00	3.4619e+01
7.7497e+00	6.9558e+00	3.4997e+01
7.8413e+00	7.1032e+00	3.5379e+01
7.9340e+00	7.2535e+00	3.5763e+01
8.0277e+00	7.4068e+00	3.6151e+01
8.1226e+00	7.5631e+00	3.6541e+01
8.2186e+00	7.7224e+00	3.6935e+01
8.3157e+00	7.8849e+00	3.7331e+01
8.4139e+00	8.0504e+00	3.7731e+01
8.5134e+00	8.2192e+00	3.8133e+01
8.6140e+00	8.3912e+00	3.8539e+01
8.7158e+00	8.5665e+00	3.8948e+01
8.8188e+00	8.7451e+00	3.9359e+01
8.9230e+00	8.9271e+00	3.9774e+01
9.0284e+00	9.1124e+00	4.0192e+01
9.1351e+00	9.3013e+00	4.0612e+01
9.2431e+00	9.4936e+00	4.1036e+01
9.3523e+00	9.6895e+00	4.1462e+01
9.4628e+00	9.8890e+00	4.1892e+01
9.5746e+00	1.0092e+01	4.2324e+01
9.6878e+00	1.0299e+01	4.2759e+01
9.8023e+00	1.0509e+01	4.3198e+01
9.9181e+00	1.0724e+01	4.3639e+01
1.0035e+01	1.0942e+01	4.4083e+01
1.0154e+01	1.1164e+01	4.4529e+01
1.0274e+01	1.1390e+01	4.4979e+01
1.0395e+01	1.1619e+01	4.5431e+01
1.0518e+01	1.1853e+01	4.5887e+01
1.0642e+01	1.2091e+01	4.6345e+01
1.0768e+01	1.2333e+01	4.6805e+01
1.0895e+01	1.2579e+01	4.7269e+01
1.1024e+01	1.2829e+01	4.7735e+01
1.1154e+01	1.3083e+01	4.8204e+01
1.1286e+01	1.3342e+01	4.8675e+01
1.1420e+01	1.3605e+01	4.9150e+01
1.1555e+01	1.3872e+01	4.9626e+01
1.1691e+01	1.4143e+01	5.0106e+01
1.1829e+01	1.4419e+01	5.0587e+01
1.1969e+01	1.4699e+01	5.1072e+01
1.2111e+01	1.4984e+01	5.1558e+01
1.2254e+01	1.5273e+01	5.2048e+01
1.2398e+01	1.5567e+01	5.2539e+01
