Material: main / W / Windt
Optical constants. D. L. Windt, W. C. Cash, M. Scott, P. Arendt, B. Newnam, R. F. Fisher, A. B. Swartzlander. Optical constants for thin films of Ti, Zr, Nb, Mo, Ru, Rh, Pd, Ag, Hf, Ta, W, Re, Ir, Os, Pt, and Au from 24 Å to 1216 Å, Appl. Opt. 27, 246-278 (1988)
wavelength (um)	n	k
0.00236	0.99775	0.00126
0.00316	0.99712	0.00197
0.00447	0.99499	0.00398
0.00676	0.99033	0.00798
0.01140	0.9713	0.0151
0.01355	0.9543	0.0200
0.01714	0.9092	0.0496
0.02430	0.9090	0.132
0.02563	0.9110	0.128
0.03038	0.899	0.156
0.03270	0.907	0.170
0.03568	0.866	0.150
0.03793	0.838	0.135
0.04059	0.810	0.141
0.04478	0.750	0.223
0.04607	0.730	0.226
0.04895	0.706	0.286
0.05391	0.712	0.436
0.05843	0.720	0.528
0.06163	0.745	0.561
0.06714	0.814	0.674
0.07185	0.960	0.767
0.07359	0.912	0.723
0.07437	0.960	0.774
0.08345	0.950	0.775
0.08780	1.04	0.845
0.09198	1.01	0.815
0.09321	0.980	0.765
0.09888	1.10	0.874
0.10258	1.19	0.903
0.10482	1.15	0.892
0.10667	1.13	0.883
0.10857	1.21	0.867
0.11350	1.23	0.857
0.12007	1.51	0.836
0.12157	1.24	0.853
