Material: main / Os / Nemoshkalenko-e
Optical constants. V. V. Nemoshkalenko, V. N. Antonov, VI. N. Antonov, M. M. Kirillova, A. E. Krasovskii, L. V. Nomerovannaya. The structure of the energy bands and optical absorption in osmium, Sov. Phys. JETP. 63, 115-119 (1968)
Comments: Extraordinary ray (e)
wavelength (um)	n	k
0.250	1.92	3.46
0.260	2.12	3.49
0.270	2.26	3.47
0.280	2.40	3.45
0.290	2.48	3.41
0.300	2.50	3.34
0.310	2.56	3.32
0.320	2.59	3.31
0.330	2.38	3.25
0.340	2.33	3.25
0.350	2.41	3.47
0.360	2.43	3.54
0.370	2.50	3.75
0.380	2.55	3.90
0.390	2.65	4.05
0.400	2.78	4.19
0.410	2.97	4.34
0.420	3.14	4.44
0.430	3.37	4.50
0.440	3.64	4.48
0.450	3.85	4.44
0.460	4.07	4.30
0.470	4.17	4.15
0.480	4.28	3.97
0.490	4.32	3.83
0.500	4.38	3.61
0.520	4.33	3.40
0.540	4.22	3.15
0.560	4.03	2.96
0.580	3.79	2.82
0.600	3.50	2.79
0.620	3.24	2.80
0.640	2.98	2.94
0.660	2.67	3.17
0.680	2.51	3.40
0.700	2.39	3.60
0.725	2.30	3.90
0.750	2.26	4.17
0.775	2.25	4.43
0.800	2.24	4.66
0.825	2.28	4.90
0.850	2.30	5.13
0.875	2.35	5.35
0.900	2.42	5.56
0.925	2.50	5.76
0.950	2.63	5.91
0.975	2.71	6.01
1.00	2.85	6.05
1.05	3.00	6.12
1.10	3.22	6.25
1.20	3.38	6.51
1.25	3.13	6.67
1.30	3.02	6.74
1.35	2.80	7.13
1.40	2.48	7.04
1.45	2.27	7.60
1.50	1.92	7.81
1.55	1.78	8.08
1.60	1.50	8.45
1.65	1.44	8.91
1.70	1.51	9.01
1.75	1.26	9.73
1.80	1.38	9.88
1.90	1.35	10.2
2.00	1.51	11.4
2.10	1.65	11.9
2.20	1.30	13.0
2.30	1.36	13.6
2.40	1.13	14.3
2.50	1.23	14.5
2.60	1.54	15.1
2.80	1.56	16.4
2.90	1.61	16.8
3.00	1.81	18.3
3.10	2.05	19.2
3.20	2.18	20.0
3.30	2.30	21.0
3.40	2.50	22.5
3.50	2.60	22.5
3.60	2.72	23.8
3.70	2.58	24.3
3.80	3.16	24.6
3.90	3.51	25.7
4.00	3.89	26.1
4.25	4.20	27.6
4.50	4.08	28.7
5.00	4.42	30.9
5.5	4.69	32.7
6.0	4.75	34.6
6.5	5.57	35.4
7.0	7.20	37.8
8.0	9.30	39.3
