Material: main / Os / Nemoshkalenko-o
Optical constants. V. V. Nemoshkalenko, V. N. Antonov, VI. N. Antonov, M. M. Kirillova, A. E. Krasovskii, L. V. Nomerovannaya. The structure of the energy bands and optical absorption in osmium, Sov. Phys. JETP. 63, 115-119 (1968)
Comments: Ordinary ray (o)
wavelength (um)	n	k
0.240	1.53	3.29
0.248	1.63	3.55
0.253	1.67	3.64
0.265	1.97	3.98
0.280	2.13	3.93
0.288	2.49	3.98
0.296	2.76	4.15
0.302	2.87	3.85
0.312	3.04	3.73
0.334	2.89	3.81
0.370	2.94	3.97
0.380	3.02	4.09
0.390	3.12	4.19
0.400	3.28	4.35
0.410	3.44	4.50
0.420	3.66	4.56
0.430	3.98	4.74
0.440	4.27	4.71
0.450	4.57	4.68
0.475	4.99	4.33
0.500	5.43	4.01
0.525	5.70	3.58
0.550	5.86	2.99
0.575	5.60	2.53
0.600	5.48	2.16
0.625	5.17	1.94
0.650	4.83	1.87
0.675	4.49	1.79
0.700	4.23	1.67
0.750	3.79	1.64
0.800	3.37	1.71
0.850	2.81	2.15
0.900	2.42	2.53
0.950	2.12	3.00
1.00	1.94	3.32
1.05	1.62	3.77
1.10	1.47	4.37
1.15	1.37	4.82
1.20	1.22	5.17
1.25	1.20	5.45
1.30	1.00	5.83
1.35	1.00	6.18
1.40	0.85	6.51
1.45	0.75	6.68
1.50	0.91	6.84
1.55	0.84	7.19
1.60	0.76	7.60
1.65	0.95	7.77
1.70	0.85	8.07
1.75	0.80	8.27
1.80	0.89	8.42
1.85	0.80	8.81
1.90	0.76	9.18
2.00	0.65	10.3
2.10	0.88	10.8
2.20	0.93	11.3
2.30	1.10	11.7
2.40	0.90	12.0
2.50	1.29	12.7
2.60	1.30	13.0
2.90	1.60	13.2
3.00	1.97	13.8
3.10	2.31	14.2
3.20	2.38	14.4
3.30	2.50	14.6
3.40	2.38	15.1
3.50	2.57	15.5
3.60	2.87	15.7
3.70	2.68	15.8
3.80	2.35	16.4
3.90	2.60	16.4
4.00	2.78	17.3
4.25	3.17	18.2
4.50	3.19	19.7
4.75	3.24	20.1
5.00	3.98	23.4
5.25	4.30	24.6
5.50	4.47	25.1
5.75	4.78	25.9
6.00	5.20	27.8
6.50	5.42	29.0
7.00	6.70	32.6
7.5	7.60	33.7
8.0	7.93	35.8
8.5	8.40	36.7
9.0	9.10	37.5
10	10.2	39.0
11	9.59	39.8
12	10.1	42.0
13	12.5	49.9
14	16.6	57.5
15	17.5	61.7
