Material: main / Os / Windt
Optical constants. D. L. Windt, W. C. Cash, M. Scott, P. Arendt, B. Newnam, R. F. Fisher, A. B. Swartzlander. Optical constants for thin films of Ti, Zr, Nb, Mo, Ru, Rh, Pd, Ag, Hf, Ta, W, Re, Ir, Os, Pt, and Au from 24 Å to 1216 Å, Appl. Opt. 27, 246-278 (1988)
wavelength (um)	n	k
0.00236	0.99605	0.00245
0.00316	0.99514	0.00381
0.00447	0.99273	0.00792
0.00676	0.9863	0.0138
0.01140	0.9524	0.0193
0.01355	0.9139	0.0322
0.01714	0.886	0.110
0.02430	0.883	0.221
0.02563	0.860	0.229
0.03038	0.840	0.111
0.03270	0.753	0.196
0.03568	0.703	0.222
0.03793	0.663	0.339
0.04059	0.638	0.363
0.04478	0.631	0.511
0.04607	0.623	0.565
0.04895	0.688	0.684
0.05391	0.750	0.784
0.05843	0.809	0.902
0.06163	0.805	0.881
0.06714	0.961	0.949
0.07185	1.03	0.931
0.07359	1.09	0.910
0.07437	1.15	0.927
0.08345	1.09	0.887
0.08780	1.03	0.876
0.09198	1.08	0.910
0.09321	1.15	0.964
0.09888	1.15	0.953
0.10258	1.26	1.020
0.10482	1.21	0.988
0.10667	1.14	0.954
0.10857	1.16	0.943
0.11350	1.16	0.929
0.12007	1.25	0.946
0.12157	1.26	0.982
