Material: main / AlAs / Rakic
Optical constants. A. D. Rakić and M. L. Majewski. Modeling the optical dielectric function of GaAs and AlAs: Extension of Adachi’s model, J. Appl. Phys. 80, 5909-5914 (1996)[Calculation script (Python)]
wavelength (um)	n	k
2.2140e-01	1.4237e+00	3.1989e+00
2.2242e-01	1.4464e+00	3.2370e+00
2.2345e-01	1.4711e+00	3.2763e+00
2.2448e-01	1.4978e+00	3.3169e+00
2.2553e-01	1.5267e+00	3.3588e+00
2.2659e-01	1.5582e+00	3.4020e+00
2.2765e-01	1.5925e+00	3.4464e+00
2.2873e-01	1.6297e+00	3.4920e+00
2.2981e-01	1.6704e+00	3.5388e+00
2.3091e-01	1.7147e+00	3.5865e+00
2.3202e-01	1.7631e+00	3.6350e+00
2.3314e-01	1.8158e+00	3.6842e+00
2.3427e-01	1.8735e+00	3.7337e+00
2.3541e-01	1.9363e+00	3.7832e+00
2.3656e-01	2.0049e+00	3.8322e+00
2.3772e-01	2.0796e+00	3.8802e+00
2.3889e-01	2.1607e+00	3.9264e+00
2.4008e-01	2.2487e+00	3.9701e+00
2.4128e-01	2.3437e+00	4.0102e+00
2.4249e-01	2.4458e+00	4.0457e+00
2.4371e-01	2.5549e+00	4.0754e+00
2.4494e-01	2.6705e+00	4.0979e+00
2.4619e-01	2.7920e+00	4.1118e+00
2.4745e-01	2.9184e+00	4.1160e+00
2.4872e-01	3.0482e+00	4.1094e+00
2.5000e-01	3.1797e+00	4.0911e+00
2.5130e-01	3.3110e+00	4.0610e+00
2.5261e-01	3.4402e+00	4.0192e+00
2.5394e-01	3.5655e+00	3.9665e+00
2.5528e-01	3.6854e+00	3.9039e+00
2.5663e-01	3.7992e+00	3.8331e+00
2.5800e-01	3.9065e+00	3.7552e+00
2.5939e-01	4.0077e+00	3.6714e+00
2.6078e-01	4.1035e+00	3.5819e+00
2.6220e-01	4.1942e+00	3.4863e+00
2.6363e-01	4.2798e+00	3.3831e+00
2.6507e-01	4.3583e+00	3.2708e+00
2.6653e-01	4.4266e+00	3.1486e+00
2.6801e-01	4.4802e+00	3.0177e+00
2.6950e-01	4.5155e+00	2.8819e+00
2.7101e-01	4.5307e+00	2.7466e+00
2.7254e-01	4.5267e+00	2.6174e+00
2.7408e-01	4.5065e+00	2.4988e+00
2.7564e-01	4.4738e+00	2.3933e+00
2.7722e-01	4.4324e+00	2.3022e+00
2.7882e-01	4.3854e+00	2.2255e+00
2.8044e-01	4.3354e+00	2.1629e+00
2.8207e-01	4.2841e+00	2.1138e+00
2.8373e-01	4.2330e+00	2.0777e+00
2.8540e-01	4.1834e+00	2.0547e+00
2.8709e-01	4.1364e+00	2.0451e+00
2.8881e-01	4.0937e+00	2.0499e+00
2.9054e-01	4.0578e+00	2.0705e+00
2.9230e-01	4.0327e+00	2.1088e+00
2.9407e-01	4.0255e+00	2.1658e+00
2.9587e-01	4.0470e+00	2.2402e+00
2.9769e-01	4.1111e+00	2.3229e+00
2.9954e-01	4.2293e+00	2.3918e+00
3.0140e-01	4.3953e+00	2.4124e+00
3.0329e-01	4.5730e+00	2.3581e+00
3.0521e-01	4.7129e+00	2.2396e+00
3.0714e-01	4.7926e+00	2.0998e+00
3.0911e-01	4.8263e+00	1.9772e+00
3.1109e-01	4.8436e+00	1.8865e+00
3.1311e-01	4.8714e+00	1.8217e+00
3.1515e-01	4.9270e+00	1.7621e+00
3.1721e-01	5.0094e+00	1.6785e+00
3.1931e-01	5.0937e+00	1.5487e+00
3.2143e-01	5.1445e+00	1.3781e+00
3.2358e-01	5.1442e+00	1.1957e+00
3.2576e-01	5.1001e+00	1.0288e+00
3.2797e-01	5.0298e+00	8.8937e-01
3.3020e-01	4.9482e+00	7.7761e-01
3.3247e-01	4.8644e+00	6.8904e-01
3.3477e-01	4.7830e+00	6.1852e-01
3.3711e-01	4.7063e+00	5.6168e-01
3.3947e-01	4.6347e+00	5.1517e-01
3.4187e-01	4.5685e+00	4.7648e-01
3.4430e-01	4.5073e+00	4.4379e-01
3.4677e-01	4.4508e+00	4.1574e-01
3.4928e-01	4.3985e+00	3.9132e-01
3.5182e-01	4.3500e+00	3.6975e-01
3.5439e-01	4.3051e+00	3.5043e-01
3.5701e-01	4.2633e+00	3.3290e-01
3.5966e-01	4.2243e+00	3.1678e-01
3.6236e-01	4.1880e+00	3.0175e-01
3.6509e-01	4.1541e+00	2.8754e-01
3.6787e-01	4.1225e+00	2.7391e-01
3.7069e-01	4.0928e+00	2.6063e-01
3.7355e-01	4.0651e+00	2.4746e-01
3.7645e-01	4.0391e+00	2.3415e-01
3.7941e-01	4.0148e+00	2.2033e-01
3.8241e-01	3.9919e+00	2.0543e-01
3.8545e-01	3.9704e+00	1.8785e-01
3.8855e-01	3.9390e+00	1.6510e-01
3.9169e-01	3.9102e+00	1.5569e-01
3.9489e-01	3.8858e+00	1.4573e-01
3.9814e-01	3.8636e+00	1.3506e-01
4.0145e-01	3.8430e+00	1.2336e-01
4.0480e-01	3.8225e+00	1.0981e-01
4.0822e-01	3.7968e+00	9.3241e-02
4.1169e-01	3.7615e+00	7.8298e-02
4.1523e-01	3.7313e+00	6.5678e-02
4.1882e-01	3.7068e+00	4.7059e-02
4.2248e-01	3.6782e+00	3.3231e-02
4.2620e-01	3.6505e+00	2.8085e-02
4.2999e-01	3.6250e+00	2.5642e-02
4.3385e-01	3.6011e+00	2.3682e-02
4.3777e-01	3.5786e+00	2.1879e-02
4.4177e-01	3.5571e+00	2.0202e-02
4.4584e-01	3.5366e+00	1.8643e-02
4.4999e-01	3.5169e+00	1.7194e-02
4.5421e-01	3.4980e+00	1.5849e-02
4.5852e-01	3.4798e+00	1.4601e-02
4.6291e-01	3.4622e+00	1.3442e-02
4.6738e-01	3.4452e+00	1.2368e-02
4.7194e-01	3.4287e+00	1.1372e-02
4.7659e-01	3.4128e+00	1.0450e-02
4.8133e-01	3.3973e+00	9.5962e-03
4.8616e-01	3.3823e+00	8.8061e-03
4.9110e-01	3.3677e+00	8.0755e-03
4.9614e-01	3.3535e+00	7.4003e-03
5.0128e-01	3.3398e+00	6.7766e-03
5.0653e-01	3.3264e+00	6.2009e-03
5.1188e-01	3.3133e+00	5.6700e-03
5.1736e-01	3.3006e+00	5.1805e-03
5.2295e-01	3.2883e+00	4.7296e-03
5.2867e-01	3.2762e+00	4.3146e-03
5.3451e-01	3.2645e+00	3.9329e-03
5.4048e-01	3.2530e+00	3.5820e-03
5.4659e-01	3.2418e+00	3.2598e-03
5.5283e-01	3.2309e+00	2.9641e-03
5.5922e-01	3.2203e+00	2.6930e-03
5.6576e-01	3.2099e+00	2.4446e-03
5.7246e-01	3.1997e+00	2.2172e-03
5.7931e-01	3.1898e+00	2.0092e-03
5.8633e-01	3.1802e+00	1.8191e-03
5.9353e-01	3.1707e+00	1.6455e-03
6.0090e-01	3.1615e+00	1.4872e-03
6.0846e-01	3.1525e+00	1.3429e-03
6.1621e-01	3.1437e+00	1.2114e-03
6.2416e-01	3.1350e+00	1.0918e-03
6.3231e-01	3.1266e+00	9.8315e-04
6.4069e-01	3.1184e+00	8.8444e-04
6.4929e-01	3.1103e+00	7.9488e-04
6.5812e-01	3.1025e+00	7.1371e-04
6.6719e-01	3.0948e+00	6.4020e-04
6.7652e-01	3.0872e+00	5.7370e-04
6.8612e-01	3.0799e+00	5.1361e-04
6.9599e-01	3.0727e+00	4.5935e-04
7.0615e-01	3.0656e+00	4.1042e-04
7.1661e-01	3.0587e+00	3.6632e-04
7.2738e-01	3.0520e+00	3.2663e-04
7.3849e-01	3.0454e+00	2.9094e-04
7.4993e-01	3.0390e+00	2.5889e-04
7.6174e-01	3.0326e+00	2.3012e-04
7.7393e-01	3.0265e+00	2.0434e-04
7.8651e-01	3.0204e+00	1.8125e-04
7.9951e-01	3.0146e+00	1.6060e-04
8.1294e-01	3.0088e+00	1.4215e-04
8.2684e-01	3.0031e+00	1.2568e-04
8.4122e-01	2.9976e+00	1.1100e-04
8.5610e-01	2.9922e+00	9.7927e-05
8.7152e-01	2.9870e+00	8.6297e-05
8.8751e-01	2.9818e+00	7.5962e-05
9.0410e-01	2.9768e+00	6.6790e-05
9.2132e-01	2.9719e+00	5.8658e-05
9.3920e-01	2.9670e+00	5.1457e-05
9.5780e-01	2.9623e+00	4.5088e-05
9.7714e-01	2.9578e+00	3.9461e-05
9.9729e-01	2.9533e+00	3.4496e-05
1.0183e+00	2.9489e+00	3.0119e-05
1.0402e+00	2.9446e+00	2.6266e-05
1.0630e+00	2.9405e+00	2.2878e-05
1.0869e+00	2.9364e+00	1.9903e-05
1.1119e+00	2.9324e+00	1.7293e-05
1.1380e+00	2.9285e+00	1.5006e-05
1.1655e+00	2.9248e+00	1.3006e-05
1.1942e+00	2.9211e+00	1.1257e-05
1.2245e+00	2.9175e+00	9.7316e-06
1.2563e+00	2.9140e+00	8.4014e-06
1.2897e+00	2.9106e+00	7.2435e-06
1.3251e+00	2.9073e+00	6.2368e-06
1.3624e+00	2.9041e+00	5.3626e-06
1.4019e+00	2.9009e+00	4.6046e-06
1.4437e+00	2.8979e+00	3.9483e-06
1.4881e+00	2.8949e+00	3.3806e-06
1.5353e+00	2.8920e+00	2.8904e-06
1.5857e+00	2.8893e+00	2.4676e-06
1.6394e+00	2.8865e+00	2.1035e-06
1.6969e+00	2.8839e+00	1.7904e-06
1.7586e+00	2.8814e+00	1.5216e-06
1.8249e+00	2.8789e+00	1.2910e-06
1.8965e+00	2.8765e+00	1.0936e-06
1.9738e+00	2.8742e+00	9.2491e-07
2.0578e+00	2.8720e+00	7.8088e-07
2.1492e+00	2.8699e+00	6.5813e-07
2.2491e+00	2.8678e+00	5.5368e-07
2.3588e+00	2.8658e+00	4.6496e-07
2.4797e+00	2.8639e+00	3.8971e-07
