Material: main / Na / Althoff
Optical constants. R. Althoff and J. H. Hertz. Measurement of the optical constants of Na and K in the range of wavelength from 2.5 to 10 Î¼, Infrared Phys. 7, 11-16 (1967)
wavelength (um)	n	k
2.25	0.41	11.6
2.5	0.50	12.5
3.0	0.61	14.7
3.5	0.81	17.2
4.0	1.02	19.4
4.75	1.71	22.3
7.2	3.66	32.9
10.15	6.43	44.5
