Material: main / Na / Inagaki
Optical constants. T. Inagaki, L. C. Emerson, E. T. Arakawa, M. W. Williams. Optical properties of solid Na and Li between 0.6 and 3.8 eV, Phs. Rev. B 13, 2305-2313 (1976)
Specs: {"n_absolute": true, "wavelength_vacuum": true}
wavelength (um)	n	k
0.326	0.0464	1.08
0.335	0.0495	1.14
0.344	0.0539	1.19
0.354	0.0583	1.25
0.365	0.0628	1.32
0.376	0.0689	1.38
0.387	0.0742	1.44
0.400	0.0794	1.50
0.413	0.0812	1.56
0.428	0.0815	1.64
0.443	0.0791	1.71
0.459	0.0745	1.80
0.477	0.0689	1.88
0.496	0.0640	1.99
0.517	0.0587	2.10
0.539	0.0539	2.23
0.564	0.0495	2.36
0.590	0.0464	2.48
0.620	0.0442	2.62
0.653	0.0424	2.78
0.689	0.0418	2.96
0.729	0.0418	3.15
0.775	0.0424	3.40
0.827	0.0447	3.64
0.886	0.0480	3.87
0.954	0.0515	4.23
1.033	0.0574	4.62
1.127	0.0660	5.05
1.240	0.0787	5.59
1.378	0.0949	6.24
1.550	0.117	7.02
1.771	0.146	8.09
2.066	0.198	9.46
