Material: main / Ni / Rakic-LD
Optical constants. A. D. Rakić, A. B. Djurišic, J. M. Elazar, and M. L. Majewski. Optical properties of metallic films for vertical-cavity optoelectronic devices, Appl. Opt. 37, 5271-5283 (1998)[Calculation script (Python)]
Comments: Fit of experimental data from several sources to Lorentz-Drude (LD) model
Specs: {"n_absolute": true, "wavelength_vacuum": true}
wavelength (um)	n	k
2.4797e-01	1.6847e+00	1.9150e+00
2.5038e-01	1.6906e+00	1.9135e+00
2.5281e-01	1.6959e+00	1.9122e+00
2.5526e-01	1.7007e+00	1.9110e+00
2.5774e-01	1.7049e+00	1.9101e+00
2.6025e-01	1.7086e+00	1.9095e+00
2.6278e-01	1.7118e+00	1.9092e+00
2.6533e-01	1.7145e+00	1.9091e+00
2.6790e-01	1.7167e+00	1.9094e+00
2.7051e-01	1.7184e+00	1.9100e+00
2.7313e-01	1.7197e+00	1.9110e+00
2.7579e-01	1.7206e+00	1.9124e+00
2.7847e-01	1.7210e+00	1.9143e+00
2.8117e-01	1.7210e+00	1.9165e+00
2.8390e-01	1.7206e+00	1.9192e+00
2.8666e-01	1.7199e+00	1.9224e+00
2.8944e-01	1.7188e+00	1.9260e+00
2.9226e-01	1.7174e+00	1.9302e+00
2.9509e-01	1.7157e+00	1.9349e+00
2.9796e-01	1.7137e+00	1.9400e+00
3.0085e-01	1.7114e+00	1.9458e+00
3.0378e-01	1.7089e+00	1.9520e+00
3.0673e-01	1.7062e+00	1.9589e+00
3.0971e-01	1.7033e+00	1.9663e+00
3.1272e-01	1.7002e+00	1.9743e+00
3.1575e-01	1.6969e+00	1.9828e+00
3.1882e-01	1.6935e+00	1.9919e+00
3.2192e-01	1.6900e+00	2.0017e+00
3.2504e-01	1.6864e+00	2.0120e+00
3.2820e-01	1.6828e+00	2.0229e+00
3.3139e-01	1.6791e+00	2.0344e+00
3.3461e-01	1.6754e+00	2.0465e+00
3.3786e-01	1.6717e+00	2.0592e+00
3.4114e-01	1.6680e+00	2.0725e+00
3.4445e-01	1.6644e+00	2.0864e+00
3.4780e-01	1.6608e+00	2.1009e+00
3.5118e-01	1.6574e+00	2.1159e+00
3.5459e-01	1.6540e+00	2.1316e+00
3.5803e-01	1.6508e+00	2.1478e+00
3.6151e-01	1.6477e+00	2.1645e+00
3.6502e-01	1.6448e+00	2.1819e+00
3.6857e-01	1.6420e+00	2.1997e+00
3.7215e-01	1.6395e+00	2.2181e+00
3.7576e-01	1.6372e+00	2.2370e+00
3.7941e-01	1.6351e+00	2.2565e+00
3.8310e-01	1.6332e+00	2.2764e+00
3.8682e-01	1.6317e+00	2.2969e+00
3.9057e-01	1.6304e+00	2.3178e+00
3.9437e-01	1.6294e+00	2.3392e+00
3.9820e-01	1.6287e+00	2.3610e+00
4.0207e-01	1.6283e+00	2.3833e+00
4.0597e-01	1.6282e+00	2.4060e+00
4.0991e-01	1.6284e+00	2.4291e+00
4.1390e-01	1.6290e+00	2.4526e+00
4.1792e-01	1.6300e+00	2.4765e+00
4.2198e-01	1.6313e+00	2.5007e+00
4.2607e-01	1.6329e+00	2.5254e+00
4.3021e-01	1.6349e+00	2.5503e+00
4.3439e-01	1.6373e+00	2.5756e+00
4.3861e-01	1.6401e+00	2.6012e+00
4.4287e-01	1.6433e+00	2.6271e+00
4.4717e-01	1.6468e+00	2.6533e+00
4.5152e-01	1.6507e+00	2.6798e+00
4.5590e-01	1.6551e+00	2.7065e+00
4.6033e-01	1.6598e+00	2.7335e+00
4.6480e-01	1.6648e+00	2.7607e+00
4.6932e-01	1.6703e+00	2.7881e+00
4.7387e-01	1.6762e+00	2.8157e+00
4.7848e-01	1.6825e+00	2.8435e+00
4.8313e-01	1.6891e+00	2.8715e+00
4.8782e-01	1.6962e+00	2.8997e+00
4.9256e-01	1.7036e+00	2.9280e+00
4.9734e-01	1.7114e+00	2.9565e+00
5.0217e-01	1.7196e+00	2.9851e+00
5.0705e-01	1.7282e+00	3.0138e+00
5.1197e-01	1.7371e+00	3.0426e+00
5.1695e-01	1.7464e+00	3.0715e+00
5.2197e-01	1.7561e+00	3.1006e+00
5.2704e-01	1.7661e+00	3.1297e+00
5.3216e-01	1.7765e+00	3.1588e+00
5.3733e-01	1.7872e+00	3.1880e+00
5.4254e-01	1.7983e+00	3.2173e+00
5.4781e-01	1.8097e+00	3.2466e+00
5.5314e-01	1.8214e+00	3.2759e+00
5.5851e-01	1.8335e+00	3.3053e+00
5.6393e-01	1.8459e+00	3.3347e+00
5.6941e-01	1.8586e+00	3.3641e+00
5.7494e-01	1.8716e+00	3.3934e+00
5.8053e-01	1.8848e+00	3.4228e+00
5.8617e-01	1.8984e+00	3.4521e+00
5.9186e-01	1.9122e+00	3.4815e+00
5.9761e-01	1.9264e+00	3.5108e+00
6.0341e-01	1.9407e+00	3.5400e+00
6.0927e-01	1.9553e+00	3.5693e+00
6.1519e-01	1.9702e+00	3.5984e+00
6.2117e-01	1.9852e+00	3.6276e+00
6.2720e-01	2.0005e+00	3.6567e+00
6.3329e-01	2.0160e+00	3.6857e+00
6.3944e-01	2.0317e+00	3.7146e+00
6.4565e-01	2.0476e+00	3.7435e+00
6.5193e-01	2.0637e+00	3.7724e+00
6.5826e-01	2.0799e+00	3.8011e+00
6.6465e-01	2.0963e+00	3.8298e+00
6.7111e-01	2.1128e+00	3.8584e+00
6.7763e-01	2.1294e+00	3.8870e+00
6.8421e-01	2.1462e+00	3.9155e+00
6.9085e-01	2.1631e+00	3.9439e+00
6.9756e-01	2.1800e+00	3.9722e+00
7.0434e-01	2.1971e+00	4.0005e+00
7.1118e-01	2.2142e+00	4.0288e+00
7.1809e-01	2.2314e+00	4.0569e+00
7.2506e-01	2.2486e+00	4.0850e+00
7.3211e-01	2.2659e+00	4.1131e+00
7.3922e-01	2.2832e+00	4.1411e+00
7.4640e-01	2.3006e+00	4.1691e+00
7.5365e-01	2.3179e+00	4.1970e+00
7.6097e-01	2.3353e+00	4.2250e+00
7.6836e-01	2.3526e+00	4.2528e+00
7.7582e-01	2.3700e+00	4.2807e+00
7.8336e-01	2.3873e+00	4.3086e+00
7.9097e-01	2.4046e+00	4.3365e+00
7.9865e-01	2.4218e+00	4.3643e+00
8.0641e-01	2.4390e+00	4.3922e+00
8.1424e-01	2.4561e+00	4.4201e+00
8.2215e-01	2.4732e+00	4.4481e+00
8.3013e-01	2.4902e+00	4.4761e+00
8.3820e-01	2.5071e+00	4.5041e+00
8.4634e-01	2.5239e+00	4.5323e+00
8.5456e-01	2.5407e+00	4.5605e+00
8.6286e-01	2.5574e+00	4.5887e+00
8.7124e-01	2.5740e+00	4.6171e+00
8.7970e-01	2.5905e+00	4.6456e+00
8.8825e-01	2.6069e+00	4.6742e+00
8.9688e-01	2.6232e+00	4.7029e+00
9.0559e-01	2.6394e+00	4.7317e+00
9.1438e-01	2.6555e+00	4.7607e+00
9.2327e-01	2.6715e+00	4.7899e+00
9.3223e-01	2.6874e+00	4.8192e+00
9.4129e-01	2.7032e+00	4.8487e+00
9.5043e-01	2.7189e+00	4.8783e+00
9.5966e-01	2.7345e+00	4.9082e+00
9.6898e-01	2.7500e+00	4.9383e+00
9.7840e-01	2.7655e+00	4.9686e+00
9.8790e-01	2.7808e+00	4.9991e+00
9.9750e-01	2.7960e+00	5.0298e+00
1.0072e+00	2.8111e+00	5.0607e+00
1.0170e+00	2.8262e+00	5.0920e+00
1.0268e+00	2.8412e+00	5.1234e+00
1.0368e+00	2.8561e+00	5.1551e+00
1.0469e+00	2.8709e+00	5.1871e+00
1.0571e+00	2.8856e+00	5.2194e+00
1.0673e+00	2.9003e+00	5.2519e+00
1.0777e+00	2.9149e+00	5.2847e+00
1.0882e+00	2.9294e+00	5.3178e+00
1.0987e+00	2.9439e+00	5.3512e+00
1.1094e+00	2.9584e+00	5.3849e+00
1.1202e+00	2.9727e+00	5.4189e+00
1.1311e+00	2.9871e+00	5.4532e+00
1.1420e+00	3.0014e+00	5.4878e+00
1.1531e+00	3.0156e+00	5.5227e+00
1.1643e+00	3.0298e+00	5.5580e+00
1.1756e+00	3.0440e+00	5.5935e+00
1.1871e+00	3.0582e+00	5.6294e+00
1.1986e+00	3.0723e+00	5.6656e+00
1.2102e+00	3.0864e+00	5.7022e+00
1.2220e+00	3.1004e+00	5.7390e+00
1.2339e+00	3.1145e+00	5.7762e+00
1.2458e+00	3.1285e+00	5.8138e+00
1.2579e+00	3.1425e+00	5.8516e+00
1.2702e+00	3.1565e+00	5.8898e+00
1.2825e+00	3.1705e+00	5.9284e+00
1.2950e+00	3.1845e+00	5.9673e+00
1.3075e+00	3.1985e+00	6.0065e+00
1.3202e+00	3.2124e+00	6.0461e+00
1.3331e+00	3.2264e+00	6.0860e+00
1.3460e+00	3.2403e+00	6.1262e+00
1.3591e+00	3.2542e+00	6.1668e+00
1.3723e+00	3.2681e+00	6.2078e+00
1.3856e+00	3.2820e+00	6.2491e+00
1.3991e+00	3.2959e+00	6.2907e+00
1.4127e+00	3.3097e+00	6.3327e+00
1.4264e+00	3.3236e+00	6.3751e+00
1.4402e+00	3.3374e+00	6.4178e+00
1.4542e+00	3.3512e+00	6.4608e+00
1.4684e+00	3.3650e+00	6.5042e+00
1.4826e+00	3.3788e+00	6.5480e+00
1.4970e+00	3.3925e+00	6.5922e+00
1.5116e+00	3.4063e+00	6.6367e+00
1.5262e+00	3.4199e+00	6.6815e+00
1.5411e+00	3.4336e+00	6.7268e+00
1.5560e+00	3.4472e+00	6.7724e+00
1.5712e+00	3.4607e+00	6.8184e+00
1.5864e+00	3.4743e+00	6.8648e+00
1.6018e+00	3.4877e+00	6.9115e+00
1.6174e+00	3.5011e+00	6.9587e+00
1.6331e+00	3.5145e+00	7.0062e+00
1.6490e+00	3.5278e+00	7.0541e+00
1.6650e+00	3.5410e+00	7.1024e+00
1.6811e+00	3.5541e+00	7.1512e+00
1.6975e+00	3.5672e+00	7.2003e+00
1.7140e+00	3.5802e+00	7.2499e+00
1.7306e+00	3.5931e+00	7.2998e+00
1.7474e+00	3.6059e+00	7.3502e+00
1.7644e+00	3.6186e+00	7.4011e+00
1.7815e+00	3.6313e+00	7.4524e+00
1.7988e+00	3.6438e+00	7.5041e+00
1.8163e+00	3.6562e+00	7.5563e+00
1.8339e+00	3.6685e+00	7.6089e+00
1.8518e+00	3.6806e+00	7.6620e+00
1.8697e+00	3.6927e+00	7.7156e+00
1.8879e+00	3.7046e+00	7.7697e+00
1.9062e+00	3.7163e+00	7.8242e+00
1.9248e+00	3.7280e+00	7.8793e+00
1.9435e+00	3.7394e+00	7.9349e+00
1.9623e+00	3.7508e+00	7.9910e+00
1.9814e+00	3.7620e+00	8.0477e+00
2.0006e+00	3.7730e+00	8.1049e+00
2.0201e+00	3.7838e+00	8.1626e+00
2.0397e+00	3.7945e+00	8.2209e+00
2.0595e+00	3.8050e+00	8.2798e+00
2.0795e+00	3.8153e+00	8.3393e+00
2.0997e+00	3.8255e+00	8.3994e+00
2.1201e+00	3.8355e+00	8.4601e+00
2.1407e+00	3.8452e+00	8.5215e+00
2.1615e+00	3.8548e+00	8.5834e+00
2.1825e+00	3.8642e+00	8.6461e+00
2.2037e+00	3.8734e+00	8.7094e+00
2.2251e+00	3.8824e+00	8.7733e+00
2.2467e+00	3.8911e+00	8.8380e+00
2.2685e+00	3.8997e+00	8.9034e+00
2.2906e+00	3.9081e+00	8.9695e+00
2.3128e+00	3.9162e+00	9.0364e+00
2.3353e+00	3.9242e+00	9.1040e+00
2.3579e+00	3.9319e+00	9.1724e+00
2.3809e+00	3.9394e+00	9.2416e+00
2.4040e+00	3.9467e+00	9.3116e+00
2.4273e+00	3.9538e+00	9.3824e+00
2.4509e+00	3.9607e+00	9.4540e+00
2.4747e+00	3.9674e+00	9.5265e+00
2.4987e+00	3.9738e+00	9.5999e+00
2.5230e+00	3.9800e+00	9.6741e+00
2.5475e+00	3.9860e+00	9.7493e+00
2.5723e+00	3.9918e+00	9.8254e+00
2.5973e+00	3.9974e+00	9.9024e+00
2.6225e+00	4.0028e+00	9.9804e+00
2.6480e+00	4.0080e+00	1.0059e+01
2.6737e+00	4.0130e+00	1.0139e+01
2.6996e+00	4.0178e+00	1.0220e+01
2.7259e+00	4.0224e+00	1.0302e+01
2.7523e+00	4.0269e+00	1.0385e+01
2.7791e+00	4.0311e+00	1.0470e+01
2.8061e+00	4.0352e+00	1.0555e+01
2.8333e+00	4.0391e+00	1.0641e+01
2.8608e+00	4.0428e+00	1.0729e+01
2.8886e+00	4.0463e+00	1.0817e+01
2.9167e+00	4.0498e+00	1.0907e+01
2.9450e+00	4.0530e+00	1.0998e+01
2.9736e+00	4.0562e+00	1.1090e+01
3.0025e+00	4.0592e+00	1.1184e+01
3.0317e+00	4.0621e+00	1.1278e+01
3.0611e+00	4.0649e+00	1.1374e+01
3.0909e+00	4.0676e+00	1.1471e+01
3.1209e+00	4.0701e+00	1.1570e+01
3.1512e+00	4.0727e+00	1.1670e+01
3.1818e+00	4.0751e+00	1.1771e+01
3.2127e+00	4.0775e+00	1.1873e+01
3.2439e+00	4.0798e+00	1.1977e+01
3.2754e+00	4.0821e+00	1.2082e+01
3.3072e+00	4.0844e+00	1.2189e+01
3.3394e+00	4.0867e+00	1.2297e+01
3.3718e+00	4.0889e+00	1.2407e+01
3.4045e+00	4.0912e+00	1.2517e+01
3.4376e+00	4.0935e+00	1.2630e+01
3.4710e+00	4.0959e+00	1.2744e+01
3.5047e+00	4.0983e+00	1.2859e+01
3.5388e+00	4.1008e+00	1.2976e+01
3.5731e+00	4.1033e+00	1.3095e+01
3.6078e+00	4.1060e+00	1.3215e+01
3.6429e+00	4.1088e+00	1.3336e+01
3.6783e+00	4.1117e+00	1.3459e+01
3.7140e+00	4.1147e+00	1.3584e+01
3.7501e+00	4.1179e+00	1.3711e+01
3.7865e+00	4.1213e+00	1.3839e+01
3.8233e+00	4.1249e+00	1.3968e+01
3.8604e+00	4.1287e+00	1.4100e+01
3.8979e+00	4.1327e+00	1.4233e+01
3.9358e+00	4.1370e+00	1.4367e+01
3.9740e+00	4.1415e+00	1.4504e+01
4.0126e+00	4.1463e+00	1.4642e+01
4.0516e+00	4.1514e+00	1.4782e+01
4.0909e+00	4.1568e+00	1.4923e+01
4.1307e+00	4.1625e+00	1.5067e+01
4.1708e+00	4.1686e+00	1.5212e+01
4.2113e+00	4.1750e+00	1.5359e+01
4.2522e+00	4.1818e+00	1.5507e+01
4.2935e+00	4.1890e+00	1.5658e+01
4.3352e+00	4.1966e+00	1.5810e+01
4.3773e+00	4.2047e+00	1.5964e+01
4.4198e+00	4.2132e+00	1.6120e+01
4.4628e+00	4.2222e+00	1.6277e+01
4.5061e+00	4.2316e+00	1.6437e+01
4.5499e+00	4.2416e+00	1.6598e+01
4.5941e+00	4.2521e+00	1.6762e+01
4.6387e+00	4.2631e+00	1.6927e+01
4.6838e+00	4.2747e+00	1.7094e+01
4.7292e+00	4.2869e+00	1.7263e+01
4.7752e+00	4.2996e+00	1.7434e+01
4.8216e+00	4.3130e+00	1.7607e+01
4.8684e+00	4.3270e+00	1.7781e+01
4.9157e+00	4.3417e+00	1.7958e+01
4.9634e+00	4.3570e+00	1.8136e+01
5.0116e+00	4.3730e+00	1.8317e+01
5.0603e+00	4.3897e+00	1.8499e+01
5.1095e+00	4.4071e+00	1.8684e+01
5.1591e+00	4.4253e+00	1.8870e+01
5.2092e+00	4.4442e+00	1.9059e+01
5.2598e+00	4.4639e+00	1.9249e+01
5.3109e+00	4.4844e+00	1.9441e+01
5.3625e+00	4.5057e+00	1.9636e+01
5.4146e+00	4.5278e+00	1.9832e+01
5.4672e+00	4.5508e+00	2.0031e+01
5.5203e+00	4.5746e+00	2.0231e+01
5.5739e+00	4.5993e+00	2.0434e+01
5.6280e+00	4.6250e+00	2.0638e+01
5.6827e+00	4.6515e+00	2.0845e+01
5.7379e+00	4.6790e+00	2.1053e+01
5.7936e+00	4.7074e+00	2.1264e+01
5.8499e+00	4.7368e+00	2.1477e+01
5.9067e+00	4.7673e+00	2.1692e+01
5.9641e+00	4.7987e+00	2.1909e+01
6.0220e+00	4.8311e+00	2.2128e+01
6.0805e+00	4.8646e+00	2.2349e+01
6.1396e+00	4.8992e+00	2.2572e+01
6.1992e+00	4.9348e+00	2.2797e+01
