Material: main / TiH2 / Palm
Optical constants. K. J. Palm, J. B. Murray, T. C. Narayan, J. N. Munday. Dynamic optical properties of metal hydrides, ACS Photonics 5, 4677-4686 (2018)(Numerical data kindly provided by Kevin Palm)
Comments: Titanium Hydride, Under 7 bar H2 gas, Room temperature, 200 nm thin film, electron beam evaporated, vacuum annealed 2 hr 350 Â°C.
wavelength (um)	n	k
0.226076263	1.422996	1.383745
0.229268463	1.478157	1.385897
0.232460739	1.512737	1.374722
0.235653107	1.530384	1.361944
0.238845535	1.5368	1.35454
0.24203801	1.539749	1.355365
0.24523056	1.545014	1.360811
0.248423187	1.553221	1.367234
0.251615875	1.563675	1.372532
0.254808594	1.575159	1.375503
0.258001404	1.586047	1.375842
0.261194214	1.595258	1.374456
0.264387085	1.602626	1.372144
0.267580017	1.608196	1.369436
0.27077298	1.612095	1.366713
0.273965973	1.614495	1.364257
0.277158997	1.615597	1.362233
0.280352081	1.615543	1.360729
0.283545135	1.614443	1.35982
0.286738251	1.612397	1.359576
0.289931396	1.609498	1.360053
0.293124573	1.605832	1.361301
0.296317719	1.601481	1.363362
0.299510895	1.596525	1.366276
0.302704071	1.591042	1.370073
0.305897278	1.585109	1.374779
0.309090485	1.578796	1.380413
0.312283661	1.572165	1.386991
0.315476868	1.565268	1.394531
0.318670044	1.558136	1.403063
0.32186322	1.550797	1.412685
0.325056396	1.543382	1.423521
0.328249542	1.536073	1.435636
0.331442688	1.529065	1.449045
0.334635773	1.522558	1.463729
0.337828857	1.516755	1.479631
0.341021912	1.511861	1.496659
0.344214935	1.508089	1.51468
0.347407928	1.505679	1.533493
0.350600891	1.504801	1.552701
0.353793793	1.505379	1.571918
0.356986664	1.50726	1.59087
0.360179504	1.51026	1.60936
0.363372284	1.514184	1.627246
0.366565002	1.518835	1.644434
0.36975766	1.524015	1.66087
0.372950287	1.529524	1.676534
0.376142853	1.535163	1.691443
0.379335327	1.540721	1.705651
0.382527771	1.545973	1.719318
0.385720093	1.550842	1.732705
0.388912384	1.555363	1.746003
0.392104553	1.559596	1.759347
0.395296692	1.563618	1.772838
0.398488708	1.56751	1.786546
0.401680695	1.571355	1.800522
0.404872559	1.57524	1.814794
0.408064331	1.579252	1.829378
0.411256012	1.583477	1.84427
0.414447571	1.588	1.859455
0.417639069	1.592911	1.8749
0.420830414	1.598308	1.890549
0.424021729	1.604281	1.906281
0.427212891	1.610831	1.921949
0.4304039	1.617918	1.937451
0.433594818	1.625492	1.95271
0.436785645	1.633501	1.967667
0.439976379	1.641887	1.98228
0.443166931	1.650594	1.996515
0.446357361	1.659568	2.01035
0.449547668	1.668753	2.023771
0.452737854	1.678098	2.036769
0.455927887	1.687551	2.049342
0.459117767	1.697064	2.061495
0.462307556	1.706588	2.073235
0.465497162	1.716076	2.084576
0.468686615	1.72548	2.095537
0.471875916	1.734749	2.106148
0.475065094	1.743839	2.116464
0.478254089	1.752743	2.126545
0.481442932	1.761461	2.136432
0.484631592	1.770001	2.146162
0.487820129	1.778372	2.155762
0.491008453	1.786583	2.165258
0.494196625	1.794646	2.174668
0.497384613	1.802571	2.18401
0.500572418	1.810369	2.193299
0.503760071	1.818052	2.202546
0.50694751	1.825632	2.211762
0.510134766	1.833119	2.220954
0.513321838	1.840523	2.23013
0.516508667	1.847856	2.239295
0.519695435	1.855129	2.248453
0.522881897	1.86235	2.257606
0.526068176	1.869529	2.266758
0.529254211	1.876678	2.275907
0.532440063	1.883805	2.285055
0.535625732	1.89092	2.294198
0.538811157	1.898034	2.30333
0.541996399	1.905151	2.312443
0.545181396	1.912271	2.32153
0.54836615	1.919396	2.330587
0.55155072	1.926525	2.339609
0.554735046	1.933658	2.348594
0.557919128	1.940795	2.357538
0.561102966	1.947935	2.366439
0.564286621	1.955076	2.375296
0.567470032	1.962217	2.384106
0.570653137	1.969358	2.392869
0.57383606	1.976497	2.401582
0.577018677	1.983632	2.410246
0.58020105	1.990763	2.418859
0.583383179	1.997889	2.427421
0.586565063	2.005007	2.435932
0.589746704	2.012116	2.444391
0.592927979	2.019215	2.452798
0.59610907	2.026303	2.461154
0.599289917	2.033377	2.469458
0.602470398	2.040437	2.477711
0.605650696	2.047482	2.485914
0.608830688	2.054509	2.494066
0.612010376	2.061517	2.502168
0.615189758	2.068504	2.510222
0.618368896	2.075469	2.518229
0.621547729	2.082411	2.526189
0.624726257	2.089326	2.534107
0.62790448	2.096216	2.541984
0.631082458	2.103081	2.549823
0.634260132	2.109921	2.557626
0.637437378	2.116737	2.565394
0.640614441	2.123529	2.573128
0.643791138	2.130299	2.58083
0.64696759	2.137047	2.5885
0.650143677	2.143773	2.596139
0.653319458	2.150479	2.603749
0.656494873	2.157164	2.611329
0.659669983	2.16383	2.61888
0.662844788	2.170476	2.626403
0.666019165	2.177104	2.633897
0.669193298	2.183715	2.641365
0.672367065	2.190307	2.648805
0.675540527	2.196883	2.656218
0.678713623	2.203442	2.663605
0.681886353	2.209985	2.670965
0.685058777	2.216512	2.678299
0.688230835	2.223024	2.685607
0.691402527	2.22952	2.692888
0.694573853	2.236002	2.700145
0.697744873	2.242469	2.707375
0.700915466	2.248921	2.71458
0.704085693	2.255359	2.721759
0.707255554	2.261784	2.728913
0.71042511	2.268194	2.736042
0.713594177	2.274591	2.743145
0.716762939	2.280975	2.750223
0.719931335	2.287345	2.757276
0.723099304	2.293701	2.764303
0.726266907	2.300044	2.771306
0.729434143	2.306374	2.778284
0.732600952	2.312691	2.785237
0.735767334	2.318994	2.792165
0.73893335	2.325284	2.799068
0.742098999	2.331561	2.805948
0.745264221	2.337825	2.812803
0.748429016	2.344075	2.819634
0.751593384	2.350312	2.826442
0.754757385	2.356537	2.833226
0.757920959	2.362748	2.839987
0.761084106	2.368948	2.846724
0.764246826	2.375134	2.853438
0.767409119	2.381308	2.860129
0.770570984	2.38747	2.866797
0.773732483	2.39362	2.873442
0.776893433	2.399757	2.880063
0.780054077	2.405882	2.886662
0.783214172	2.411995	2.893238
0.786373901	2.418095	2.899791
0.789533081	2.424184	2.906321
0.792691956	2.430261	2.912828
0.795850281	2.436325	2.919313
0.799008179	2.442377	2.925775
0.802165649	2.448417	2.932214
0.805322632	2.454445	2.938631
0.808479126	2.460461	2.945025
0.811635193	2.466464	2.951397
0.814790771	2.472455	2.957746
0.817945923	2.478434	2.964073
0.821100586	2.484401	2.970378
0.8242547	2.490355	2.97666
0.827408386	2.496296	2.98292
0.830561646	2.502225	2.989158
0.833714355	2.508141	2.995374
0.836866577	2.514044	3.001569
0.840018372	2.519934	3.007741
0.843169617	2.525811	3.013891
0.846320313	2.531675	3.02002
0.849470581	2.537526	3.026127
0.852620422	2.543364	3.032213
0.855769653	2.549188	3.038277
0.858918335	2.554998	3.04432
0.862066589	2.560795	3.050342
0.865214355	2.566578	3.056343
0.868361511	2.572347	3.062323
0.871508179	2.578101	3.068283
0.874654419	2.583842	3.074222
0.87780011	2.589567	3.08014
0.88094519	2.595279	3.086039
0.884089722	2.600975	3.091917
0.887233765	2.606656	3.097775
0.890377319	2.612322	3.103614
0.893520325	2.617972	3.109434
0.896662781	2.623607	3.115234
0.899804688	2.629225	3.121016
0.902945984	2.634827	3.126779
0.906086792	2.640413	3.132524
0.909227051	2.645981	3.138252
0.912366699	2.651532	3.143963
0.915505859	2.657067	3.149659
0.918644409	2.662584	3.15534
0.92178241	2.668085	3.161006
0.924919922	2.673569	3.166659
0.928056763	2.679038	3.172298
0.931193054	2.684491	3.177924
0.934328796	2.68993	3.183537
0.937463867	2.695353	3.189138
0.94059845	2.700762	3.194727
0.943732422	2.706157	3.200304
0.946865845	2.711538	3.205869
0.949998657	2.716906	3.211422
0.953130859	2.72226	3.216964
0.956262512	2.727602	3.222496
0.959393555	2.732932	3.228015
0.962523926	2.738249	3.233524
0.965653809	2.743555	3.239022
0.96878302	2.748849	3.244509
0.971911621	2.754132	3.249986
0.975039551	2.759403	3.255451
0.978166992	2.764664	3.260906
0.981293762	2.769915	3.266351
0.9844198	2.775155	3.271784
0.98754541	2.780385	3.277207
0.990670288	2.785606	3.282619
0.993794556	2.790817	3.288021
0.996918152	2.796019	3.293412
1.011449524	2.820114	3.318366
1.018225952	2.831295	3.329931
1.025004272	2.842448	3.341453
1.031784424	2.853572	3.352931
1.03856665	2.86467	3.364365
1.045350586	2.875742	3.375755
1.052136475	2.886789	3.387098
1.058924194	2.897814	3.398396
1.065713867	2.908815	3.409647
1.072505493	2.919794	3.420851
1.07929895	2.930751	3.432006
1.08609436	2.941688	3.443113
1.092891602	2.952604	3.45417
1.099690674	2.9635	3.465176
1.106491821	2.974376	3.476133
1.113294678	2.985233	3.487037
1.120099609	2.996069	3.497891
1.126906372	3.006887	3.508691
1.133714966	3.017685	3.519439
1.140525513	3.028463	3.530134
1.147337891	3.039223	3.540774
1.154152222	3.049962	3.551361
1.160968506	3.060682	3.561893
1.167786499	3.071382	3.572371
1.174606567	3.082061	3.582794
1.181428467	3.09272	3.593162
1.188252197	3.103358	3.603475
1.195077881	3.113975	3.613734
1.201905518	3.124571	3.623939
1.208734863	3.135146	3.634089
1.215566162	3.145701	3.644186
1.222399536	3.156235	3.654229
1.229234619	3.166749	3.664217
1.236071655	3.177244	3.674152
1.242910522	3.187719	3.684033
1.249751343	3.198174	3.693859
1.256593994	3.208609	3.703631
1.263438721	3.219025	3.713348
1.270285156	3.229422	3.723011
1.277133545	3.239799	3.732619
1.283983765	3.250158	3.742172
1.290835938	3.260497	3.751671
1.297689941	3.270817	3.761114
1.304545898	3.281119	3.770501
1.311403687	3.291401	3.779834
1.318263428	3.301665	3.789111
1.325125122	3.311909	3.798332
1.331988525	3.322135	3.807497
1.338853882	3.332342	3.816607
1.345721191	3.34253	3.82566
1.352590454	3.3527	3.834657
1.359461426	3.36285	3.843598
1.366334351	3.372982	3.852483
1.373209229	3.383096	3.861311
1.380085938	3.393191	3.870083
1.3869646	3.403267	3.878798
1.393844971	3.413324	3.887456
1.400727417	3.423363	3.896057
1.407611694	3.433384	3.904601
1.414497803	3.443386	3.913088
1.421385864	3.45337	3.921518
1.428275757	3.463336	3.92989
1.435167725	3.473284	3.938205
1.442061279	3.483213	3.946463
1.448956909	3.493125	3.954662
1.45585437	3.503019	3.962804
1.462753784	3.512895	3.970888
1.469655029	3.522754	3.978914
1.476558228	3.532595	3.986882
1.483463135	3.542419	3.994791
1.490370117	3.552227	4.002641
1.497278931	3.562017	4.010433
1.504189697	3.571792	4.018166
1.511102173	3.58155	4.02584
1.518016602	3.591292	4.033454
1.524932983	3.601019	4.041009
1.531851196	3.61073	4.048504
1.53877124	3.620427	4.055939
1.545693237	3.630109	4.063313
1.552617188	3.639777	4.070627
1.559542969	3.649432	4.077879
1.566470581	3.659073	4.085071
1.573400146	3.668702	4.0922
1.580331543	3.678319	4.099267
1.587264893	3.687924	4.10627
1.594199951	3.697519	4.113211
1.601137085	3.707104	4.120088
1.60807605	3.71668	4.126899
1.615016846	3.726248	4.133646
1.621959595	3.735808	4.140326
1.628904175	3.745362	4.146939
1.635850708	3.75491	4.153484
1.642799072	3.764455	4.159961
1.649749268	3.773997	4.166366
1.656701416	3.783538	4.1727
1.663655518	3.793079	4.178961
1.670611328	3.802624	4.185146
1.677569092	3.812173	4.191254
1.684528687	3.821731	4.197281
