Material: main / ZnTe / Sato
Optical constants. K. Sato and S. Adachi. Optical properties of ZnTe, J. Appl. Phys. 73, 926-931 (1993)[Calculation script (Python)]
Comments: Fit of author's experimental data to a simplified model of the interband transitions (MDF). Room Temperature.
wavelength (um)	n	k
2.2140e-01	1.9140e+00	2.7927e+00
2.2205e-01	1.9421e+00	2.8051e+00
2.2271e-01	1.9713e+00	2.8169e+00
2.2337e-01	2.0016e+00	2.8280e+00
2.2403e-01	2.0330e+00	2.8383e+00
2.2470e-01	2.0656e+00	2.8477e+00
2.2537e-01	2.0993e+00	2.8561e+00
2.2604e-01	2.1340e+00	2.8634e+00
2.2672e-01	2.1698e+00	2.8693e+00
2.2741e-01	2.2066e+00	2.8739e+00
2.2809e-01	2.2443e+00	2.8770e+00
2.2879e-01	2.2828e+00	2.8783e+00
2.2948e-01	2.3220e+00	2.8780e+00
2.3018e-01	2.3617e+00	2.8757e+00
2.3089e-01	2.4019e+00	2.8714e+00
2.3159e-01	2.4423e+00	2.8651e+00
2.3231e-01	2.4828e+00	2.8565e+00
2.3302e-01	2.5232e+00	2.8458e+00
2.3375e-01	2.5632e+00	2.8329e+00
2.3447e-01	2.6027e+00	2.8177e+00
2.3520e-01	2.6414e+00	2.8003e+00
2.3594e-01	2.6790e+00	2.7807e+00
2.3668e-01	2.7154e+00	2.7591e+00
2.3742e-01	2.7504e+00	2.7356e+00
2.3817e-01	2.7837e+00	2.7102e+00
2.3893e-01	2.8152e+00	2.6833e+00
2.3969e-01	2.8448e+00	2.6549e+00
2.4045e-01	2.8723e+00	2.6253e+00
2.4122e-01	2.8976e+00	2.5947e+00
2.4199e-01	2.9208e+00	2.5634e+00
2.4277e-01	2.9416e+00	2.5315e+00
2.4356e-01	2.9602e+00	2.4994e+00
2.4434e-01	2.9766e+00	2.4671e+00
2.4514e-01	2.9909e+00	2.4350e+00
2.4594e-01	3.0030e+00	2.4032e+00
2.4674e-01	3.0132e+00	2.3719e+00
2.4755e-01	3.0214e+00	2.3413e+00
2.4837e-01	3.0280e+00	2.3114e+00
2.4919e-01	3.0328e+00	2.2825e+00
2.5001e-01	3.0362e+00	2.2545e+00
2.5084e-01	3.0383e+00	2.2277e+00
2.5168e-01	3.0391e+00	2.2020e+00
2.5252e-01	3.0389e+00	2.1774e+00
2.5337e-01	3.0376e+00	2.1541e+00
2.5422e-01	3.0356e+00	2.1320e+00
2.5508e-01	3.0328e+00	2.1112e+00
2.5595e-01	3.0295e+00	2.0916e+00
2.5682e-01	3.0256e+00	2.0733e+00
2.5770e-01	3.0214e+00	2.0562e+00
2.5858e-01	3.0168e+00	2.0403e+00
2.5947e-01	3.0120e+00	2.0255e+00
2.6037e-01	3.0071e+00	2.0119e+00
2.6127e-01	3.0020e+00	1.9994e+00
2.6218e-01	2.9969e+00	1.9880e+00
2.6309e-01	2.9919e+00	1.9777e+00
2.6401e-01	2.9869e+00	1.9683e+00
2.6494e-01	2.9821e+00	1.9600e+00
2.6587e-01	2.9774e+00	1.9527e+00
2.6681e-01	2.9729e+00	1.9463e+00
2.6776e-01	2.9687e+00	1.9408e+00
2.6871e-01	2.9647e+00	1.9362e+00
2.6967e-01	2.9611e+00	1.9325e+00
2.7064e-01	2.9577e+00	1.9298e+00
2.7161e-01	2.9548e+00	1.9278e+00
2.7259e-01	2.9522e+00	1.9268e+00
2.7358e-01	2.9501e+00	1.9266e+00
2.7458e-01	2.9485e+00	1.9273e+00
2.7558e-01	2.9474e+00	1.9290e+00
2.7659e-01	2.9468e+00	1.9315e+00
2.7761e-01	2.9469e+00	1.9350e+00
2.7863e-01	2.9477e+00	1.9395e+00
2.7967e-01	2.9493e+00	1.9450e+00
2.8071e-01	2.9519e+00	1.9516e+00
2.8176e-01	2.9554e+00	1.9593e+00
2.8281e-01	2.9602e+00	1.9682e+00
2.8388e-01	2.9664e+00	1.9784e+00
2.8495e-01	2.9744e+00	1.9898e+00
2.8603e-01	2.9845e+00	2.0026e+00
2.8712e-01	2.9973e+00	2.0166e+00
2.8821e-01	3.0133e+00	2.0317e+00
2.8932e-01	3.0333e+00	2.0473e+00
2.9043e-01	3.0579e+00	2.0628e+00
2.9156e-01	3.0876e+00	2.0771e+00
2.9269e-01	3.1227e+00	2.0887e+00
2.9383e-01	3.1630e+00	2.0960e+00
2.9498e-01	3.2077e+00	2.0972e+00
2.9613e-01	3.2551e+00	2.0909e+00
2.9730e-01	3.3032e+00	2.0761e+00
2.9848e-01	3.3494e+00	2.0526e+00
2.9966e-01	3.3913e+00	2.0213e+00
3.0086e-01	3.4269e+00	1.9837e+00
3.0206e-01	3.4549e+00	1.9421e+00
3.0328e-01	3.4749e+00	1.8987e+00
3.0450e-01	3.4874e+00	1.8557e+00
3.0573e-01	3.4931e+00	1.8147e+00
3.0698e-01	3.4934e+00	1.7770e+00
3.0823e-01	3.4894e+00	1.7431e+00
3.0950e-01	3.4823e+00	1.7134e+00
3.1077e-01	3.4732e+00	1.6880e+00
3.1206e-01	3.4629e+00	1.6666e+00
3.1335e-01	3.4521e+00	1.6491e+00
3.1466e-01	3.4412e+00	1.6351e+00
3.1598e-01	3.4306e+00	1.6244e+00
3.1730e-01	3.4206e+00	1.6168e+00
3.1864e-01	3.4114e+00	1.6121e+00
3.2000e-01	3.4031e+00	1.6101e+00
3.2136e-01	3.3959e+00	1.6109e+00
3.2273e-01	3.3900e+00	1.6145e+00
3.2412e-01	3.3856e+00	1.6211e+00
3.2552e-01	3.3831e+00	1.6308e+00
3.2693e-01	3.3829e+00	1.6440e+00
3.2835e-01	3.3860e+00	1.6608e+00
3.2979e-01	3.3935e+00	1.6814e+00
3.3124e-01	3.4066e+00	1.7056e+00
3.3270e-01	3.4271e+00	1.7327e+00
3.3417e-01	3.4566e+00	1.7613e+00
3.3566e-01	3.4967e+00	1.7892e+00
3.3716e-01	3.5481e+00	1.8137e+00
3.3867e-01	3.6109e+00	1.8312e+00
3.4020e-01	3.6836e+00	1.8380e+00
3.4174e-01	3.7636e+00	1.8310e+00
3.4329e-01	3.8468e+00	1.8079e+00
3.4486e-01	3.9286e+00	1.7678e+00
3.4644e-01	4.0042e+00	1.7118e+00
3.4804e-01	4.0698e+00	1.6424e+00
3.4966e-01	4.1225e+00	1.5632e+00
3.5128e-01	4.1610e+00	1.4783e+00
3.5293e-01	4.1857e+00	1.3914e+00
3.5459e-01	4.1975e+00	1.3057e+00
3.5626e-01	4.1984e+00	1.2236e+00
3.5795e-01	4.1902e+00	1.1465e+00
3.5966e-01	4.1750e+00	1.0752e+00
3.6138e-01	4.1546e+00	1.0100e+00
3.6312e-01	4.1303e+00	9.5091e-01
3.6487e-01	4.1035e+00	8.9750e-01
3.6665e-01	4.0750e+00	8.4936e-01
3.6844e-01	4.0456e+00	8.0602e-01
3.7025e-01	4.0159e+00	7.6697e-01
3.7207e-01	3.9860e+00	7.3175e-01
3.7392e-01	3.9564e+00	6.9993e-01
3.7578e-01	3.9271e+00	6.7115e-01
3.7766e-01	3.8982e+00	6.4512e-01
3.7956e-01	3.8694e+00	6.2172e-01
3.8148e-01	3.8406e+00	6.0113e-01
3.8342e-01	3.8113e+00	5.8440e-01
3.8538e-01	3.7824e+00	5.7515e-01
3.8735e-01	3.7661e+00	5.7846e-01
3.8935e-01	3.7767e+00	5.6080e-01
3.9137e-01	3.7589e+00	5.2039e-01
3.9341e-01	3.7289e+00	4.9640e-01
3.9548e-01	3.7013e+00	4.8076e-01
3.9756e-01	3.6766e+00	4.6847e-01
3.9966e-01	3.6539e+00	4.5790e-01
4.0179e-01	3.6328e+00	4.4844e-01
4.0394e-01	3.6131e+00	4.3980e-01
4.0612e-01	3.5944e+00	4.3181e-01
4.0832e-01	3.5766e+00	4.2437e-01
4.1054e-01	3.5598e+00	4.1739e-01
4.1278e-01	3.5437e+00	4.1082e-01
4.1506e-01	3.5283e+00	4.0461e-01
4.1735e-01	3.5136e+00	3.9872e-01
4.1967e-01	3.4995e+00	3.9311e-01
4.2202e-01	3.4861e+00	3.8775e-01
4.2439e-01	3.4732e+00	3.8261e-01
4.2679e-01	3.4608e+00	3.7767e-01
4.2922e-01	3.4489e+00	3.7290e-01
4.3168e-01	3.4375e+00	3.6827e-01
4.3416e-01	3.4266e+00	3.6378e-01
4.3667e-01	3.4162e+00	3.5939e-01
4.3922e-01	3.4061e+00	3.5510e-01
4.4179e-01	3.3965e+00	3.5088e-01
4.4439e-01	3.3873e+00	3.4672e-01
4.4702e-01	3.3784e+00	3.4260e-01
4.4969e-01	3.3700e+00	3.3851e-01
4.5238e-01	3.3619e+00	3.3443e-01
4.5511e-01	3.3541e+00	3.3035e-01
4.5788e-01	3.3467e+00	3.2625e-01
4.6067e-01	3.3395e+00	3.2212e-01
4.6350e-01	3.3327e+00	3.1794e-01
4.6637e-01	3.3262e+00	3.1371e-01
4.6927e-01	3.3200e+00	3.0939e-01
4.7220e-01	3.3140e+00	3.0499e-01
4.7518e-01	3.3083e+00	3.0047e-01
4.7819e-01	3.3029e+00	2.9582e-01
4.8124e-01	3.2977e+00	2.9103e-01
4.8433e-01	3.2927e+00	2.8607e-01
4.8746e-01	3.2879e+00	2.8092e-01
4.9063e-01	3.2834e+00	2.7556e-01
4.9384e-01	3.2789e+00	2.6996e-01
4.9709e-01	3.2746e+00	2.6410e-01
5.0039e-01	3.2705e+00	2.5793e-01
5.0373e-01	3.2663e+00	2.5143e-01
5.0712e-01	3.2622e+00	2.4456e-01
5.1055e-01	3.2580e+00	2.3728e-01
5.1403e-01	3.2536e+00	2.2956e-01
5.1755e-01	3.2489e+00	2.2135e-01
5.2113e-01	3.2436e+00	2.1266e-01
5.2475e-01	3.2373e+00	2.0356e-01
5.2843e-01	3.2295e+00	1.9430e-01
5.3215e-01	3.2190e+00	1.8575e-01
5.3593e-01	3.2043e+00	1.8064e-01
5.3977e-01	3.1857e+00	1.8810e-01
5.4366e-01	3.1902e+00	2.2368e-01
5.4760e-01	3.2565e+00	2.1229e-01
5.5161e-01	3.2577e+00	1.4505e-01
5.5567e-01	3.2278e+00	1.1263e-01
5.5979e-01	3.2013e+00	9.8216e-02
5.6398e-01	3.1796e+00	9.0467e-02
5.6822e-01	3.1613e+00	8.5561e-02
5.7253e-01	3.1455e+00	8.2063e-02
5.7691e-01	3.1313e+00	7.9348e-02
5.8136e-01	3.1183e+00	7.7112e-02
5.8587e-01	3.1064e+00	7.5188e-02
5.9046e-01	3.0952e+00	7.3483e-02
5.9511e-01	3.0847e+00	7.1935e-02
5.9985e-01	3.0747e+00	7.0508e-02
6.0465e-01	3.0652e+00	6.9175e-02
6.0954e-01	3.0561e+00	6.7918e-02
6.1450e-01	3.0473e+00	6.6724e-02
6.1955e-01	3.0389e+00	6.5582e-02
6.2468e-01	3.0308e+00	6.4487e-02
6.2989e-01	3.0229e+00	6.3432e-02
6.3520e-01	3.0153e+00	6.2412e-02
6.4059e-01	3.0079e+00	6.1424e-02
6.4607e-01	3.0007e+00	6.0465e-02
6.5165e-01	2.9937e+00	5.9532e-02
6.5733e-01	2.9869e+00	5.8623e-02
6.6311e-01	2.9802e+00	5.7737e-02
6.6899e-01	2.9737e+00	5.6872e-02
6.7497e-01	2.9674e+00	5.6026e-02
6.8107e-01	2.9612e+00	5.5199e-02
6.8727e-01	2.9552e+00	5.4389e-02
6.9359e-01	2.9492e+00	5.3596e-02
7.0002e-01	2.9434e+00	5.2818e-02
7.0658e-01	2.9378e+00	5.2055e-02
7.1326e-01	2.9322e+00	5.1306e-02
7.2007e-01	2.9268e+00	5.0571e-02
7.2700e-01	2.9214e+00	4.9849e-02
7.3408e-01	2.9162e+00	4.9140e-02
7.4129e-01	2.9110e+00	4.8442e-02
7.4865e-01	2.9060e+00	4.7757e-02
7.5615e-01	2.9011e+00	4.7082e-02
7.6380e-01	2.8962e+00	4.6418e-02
7.7162e-01	2.8914e+00	4.5764e-02
7.7959e-01	2.8867e+00	4.5121e-02
7.8773e-01	2.8821e+00	4.4487e-02
7.9604e-01	2.8776e+00	4.3863e-02
8.0453e-01	2.8732e+00	4.3248e-02
8.1320e-01	2.8688e+00	4.2641e-02
8.2206e-01	2.8645e+00	4.2044e-02
