Material: main / SiC / Larruquert
Optical constants. J. I. Larruquert, A. P. Pérez-Marín, S. García-Cortés, L. Rodríguez-de Marcos, J. A. Aznárez, J. A. Méndez. Self-consistent optical constants of SiC thin films, J. Opt. Soc. Am. A 28, 2340-2345 (2011) (Numerical data kindly provided by Juan Larruquert)
Comments: Density: 2.98 g/cm3. Film deposited at room temperature.
Specs: {"n_absolute": true, "wavelength_vacuum": true}
wavelength (um)	n	k
0.00615447	0.99066944	0.006999813
0.006241578	0.99048697	0.007262762
0.006329918	0.99030815	0.007535862
0.006419509	0.99013098	0.007819274
0.006510368	0.98995529	0.00811343
0.006602513	0.98978236	0.008415588
0.006695962	0.98960346	0.008723644
0.006790734	0.98941107	0.009039841
0.006886847	0.98919329	0.009367536
0.006984321	0.98884164	0.009773624
0.007083173	0.98852488	0.010402748
0.007183426	0.9885054	0.011269102
0.007285097	0.98885037	0.012004526
0.007388207	0.98929609	0.012367365
0.007492777	0.9895399	0.012561458
0.007598826	0.98982809	0.012723997
0.007706377	0.98995536	0.012686032
0.007815449	0.98988377	0.012751205
0.007926066	0.98964519	0.012777595
0.008038247	0.98917796	0.013201276
0.008152017	0.98953254	0.014070478
0.008267397	0.98965255	0.013903821
0.008384411	0.98964703	0.014268603
0.00850308	0.98972596	0.014456296
0.008623429	0.98967568	0.014547607
0.008745482	0.98941116	0.014816417
0.008869262	0.98933735	0.015140553
0.008994792	0.98904231	0.015475674
0.009122101	0.98872115	0.016300781
0.009251211	0.98902639	0.017508434
0.009382149	0.9899685	0.01810828
0.00951494	0.99069666	0.018181913
0.00964961	0.99108923	0.018163275
0.009786187	0.99136607	0.018265454
0.009924696	0.99170984	0.018442789
0.010065166	0.99216441	0.018686509
0.010207624	0.99284129	0.018800311
0.010352099	0.99348266	0.018664815
0.010498617	0.99441141	0.018516166
0.010647209	0.99523429	0.017595178
0.010797907	0.9953442	0.016495785
0.010950735	0.99505438	0.015910318
0.011105728	0.99516019	0.015508306
0.011262913	0.99511715	0.014733582
0.011422323	0.99500206	0.014536046
0.011583989	0.99538998	0.013809335
0.011747944	0.99528282	0.011766585
0.01191422	0.99299362	0.011363567
0.012082849	0.99240007	0.013402663
0.012253864	0.99654134	0.01758486
0.012427301	1.0002086	0.005377036
0.012603191	0.99367097	0.00387369
0.01278157	0.99083359	0.003966874
0.012962476	0.98881312	0.004078125
0.013145941	0.98713035	0.00419786
0.013332003	0.98562597	0.004322616
0.013520698	0.98422376	0.004452623
0.013712064	0.98288476	0.004596364
0.013906139	0.98158939	0.004750569
0.01410296	0.98032141	0.004912257
0.014302568	0.97906532	0.005080472
0.014504999	0.97780836	0.005255491
0.014710296	0.97653084	0.005444316
0.0149185	0.97525029	0.005675133
0.01512965	0.97396924	0.00591825
0.015343789	0.97266511	0.006171827
0.015560957	0.97134534	0.006473311
0.015781202	0.97000109	0.006799735
0.016004561	0.9686659	0.007190591
0.016231083	0.96735281	0.007596639
0.01646081	0.9660525	0.008018971
0.01669379	0.96476436	0.008437887
0.016930068	0.9634591	0.008839057
0.017169688	0.96212629	0.009253821
0.0174127	0.96078766	0.009687986
0.017659151	0.95945418	0.010110543
0.017909092	0.95809599	0.010507727
0.018162569	0.95668098	0.010890902
0.018419635	0.9552241	0.011293607
0.018680338	0.95372878	0.011707797
0.018944732	0.95221607	0.01213899
0.019212866	0.95066396	0.012544226
0.019484797	0.94905454	0.012959245
0.019760576	0.94739026	0.013385087
0.02004026	0.94568616	0.013820564
0.020323899	0.94393367	0.014271155
0.020611556	0.94212183	0.014707213
0.020903282	0.94022095	0.015155989
0.02119914	0.93825582	0.015658127
0.021499182	0.93625348	0.016183067
0.021803473	0.93417435	0.016708072
0.022112071	0.93203467	0.017270319
0.022425035	0.92982871	0.017852376
0.022742428	0.9275471	0.018454825
0.023064316	0.92517519	0.019087178
0.023390758	0.92271315	0.019774146
0.02372182	0.92019115	0.020520582
0.024057569	0.91760601	0.021326035
0.024398068	0.91496839	0.022165583
0.024743389	0.91226446	0.023039158
0.025093597	0.90948845	0.023948209
0.02544876	0.90663604	0.024894196
0.025808949	0.90370378	0.025878633
0.02617424	0.90068736	0.026889661
0.026544698	0.8975648	0.027955385
0.026920399	0.89434621	0.029061496
0.027301418	0.89099647	0.03021047
0.027687832	0.88750657	0.031484552
0.028079712	0.88396473	0.032877888
0.028477142	0.88036705	0.03434272
0.028880195	0.8766822	0.035864933
0.029288953	0.87291711	0.037469679
0.029703496	0.86906913	0.039149503
0.030123905	0.86513773	0.040908209
0.030550267	0.86112673	0.042749529
0.030982665	0.85705307	0.044677945
0.031421177	0.8529447	0.046642797
0.031865897	0.84872458	0.048591337
0.032316916	0.84433901	0.050572594
0.032774317	0.83979089	0.052636388
0.03323819	0.83509407	0.054789239
0.033708628	0.83024892	0.057034683
0.034185724	0.82525228	0.0593768
0.034669571	0.82009965	0.061819656
0.03516027	0.81476728	0.064365738
0.035657918	0.80925639	0.06706204
0.036162603	0.80360596	0.06991495
0.036674433	0.79781264	0.072895314
0.037193508	0.79186204	0.076006369
0.037719926	0.785747	0.079253095
0.038253796	0.77946052	0.08263394
0.038795226	0.77298332	0.086164006
0.039344314	0.76631349	0.089866427
0.039901182	0.75948444	0.093746348
0.040465923	0.75250731	0.097763643
0.041038659	0.74539018	0.101827646
0.042460338	0.72661559	0.113
0.044782512	0.69404695	0.131299502
0.04750352	0.65139108	0.158
0.050400076	0.59847603	0.197
0.053910821	0.53552479	0.243802601
0.05687348	0.47194511	0.32
0.059895743	0.42089596	0.43
0.064575098	0.42245526	0.57
0.070445561	0.42168082	0.71
0.077008812	0.41730209	0.87
0.083210864	0.4327285	1.05
0.089197257	0.47263116	1.22
0.094644418	0.53841536	1.38
0.100800152	0.64963031	1.54
0.108758059	0.79543533	1.69
0.119863867	1.0268995	1.869965157
0.137760208	1.3677286	2.04
0.154824162	1.6717922	2.185783427
0.164812817	1.8868331	2.251654063
0.174801474	2.1094467	2.277826798
0.184790127	2.3130627	2.26216472
0.195737693	2.5546254	2.246368988
0.20804372	2.7743042	2.11993073
0.220359729	2.9299705	2.010589999
0.232675743	3.0656025	1.915363583
0.244981768	3.1953921	1.820116136
0.257297781	3.3212387	1.710910526
0.269603805	3.4231566	1.574724484
0.281919815	3.4851767	1.437388964
0.294225837	3.5171971	1.315458562
0.306541853	3.5370883	1.213536537
0.318857862	3.5510013	1.125813326
0.331173878	3.5642136	1.045569768
0.343479899	3.5762999	0.973062249
0.355795913	3.5936786	0.892652532
0.36810194	3.5791865	0.80060587
0.380417954	3.5510396	0.745028354
0.392733962	3.532574	0.701999197
0.405039978	3.5189385	0.663751268
0.417346006	3.5066925	0.629067772
0.42967201	3.4969124	0.59869744
0.441988027	3.4888334	0.569542066
0.454294049	3.4812111	0.542556889
0.466600073	3.4754387	0.517591068
0.478926062	3.4696288	0.491721633
0.491232102	3.4629485	0.468150355
0.503538121	3.4565516	0.445935685
0.515844145	3.450185	0.424759625
0.52817015	3.4436978	0.404736789
0.540476158	3.437019	0.385874485
0.552782195	3.4304673	0.368412981
0.565108184	3.4241282	0.351845968
0.577414214	3.4178021	0.335996242
0.589740215	3.4116403	0.32135559
0.602036246	3.4056437	0.306829415
0.614342279	3.3995084	0.293713987
0.626648289	3.3935931	0.28036713
0.63896431	3.3864576	0.268112464
0.651300292	3.3806194	0.257573122
0.663586345	3.3745261	0.246817482
0.675892361	3.3685981	0.237231098
0.688218388	3.3633597	0.227880847
0.700514421	3.3575725	0.218871533
0.712860397	3.3526664	0.210903271
0.725166404	3.3478155	0.202692558
0.737472418	3.3426017	0.194260025
0.749798435	3.3375157	0.187554023
0.762124441	3.3332146	0.180340223
0.77442045	3.3285119	0.173390766
0.786716523	3.3235731	0.166420478
0.799052483	3.3181924	0.160261318
0.811348519	3.312627	0.155055655
0.823654573	3.3088085	0.150532466
0.836000532	3.3054404	0.146356437
0.848306571	3.3006158	0.139569087
0.860572629	3.2960116	0.137102545
0.872878634	3.2939944	0.132734367
0.885234599	3.2883094	0.127586051
0.897550623	3.2854071	0.125293808
0.909816695	3.284888	0.122765757
0.922152706	3.2813677	0.115964092
0.934468713	3.2776645	0.112573589
0.946754729	3.2759563	0.107485833
1.04909367	3.2471036	0.086479163
1.311030739	3.2091931	0.051542848
1.748290137	3.1688938	0.023596411
2.091965336	3.1462222	0.012649009
2.620940933	3.1214891	0.008760318
3.496580273	3.092332	0.009033507
4.031624304	3.0742951	0.011163108
4.692441882	3.0505027	0.017375613
5.596839199	3.0129066	0.030369106
6.985195831	2.9390925	0.068853617
8.000270201	2.8636822	0.123167539
8.731280805	2.8011358	0.191456967
9.392741472	2.7461517	0.284474546
10.00033775	2.7090113	0.40481724
10.73456168	2.7118315	0.592000667
11.37469609	2.7861427	0.774110294
12.00040491	2.9353617	0.926828441
12.78187499	3.1795631	1.021650075
13.33163306	3.3606458	1.011256239
14.00047283	3.5369359	0.931143821
15.49802343	3.7409355	0.697498408
16.53122499	3.7798015	0.55552107
17.58640956	3.7829862	0.448502339
18.5051026	3.7729841	0.379553774
19.52506889	3.7574033	0.322108424
21.53810572	3.7285879	0.248078477
26.06110824	3.6826639	0.160742988
31.533941	3.6491383	0.113367309
38.15606839	3.6269792	0.084469158
46.16884253	3.6123724	0.065170975
55.86429959	3.6026669	0.05142775
67.59580266	3.5961602	0.041184479
81.79091881	3.5917547	0.033300322
98.9670177	3.5887093	0.027092637
119.7500878	3.5865417	0.022540169
