Material: main / SiO / Fernandez-Perea
Optical constants. M. Fernández-Perea, M. Vidal-Dasilva, J. I. Larruquert, J. A. Aznárez, J. A. Méndez, E. Gullikson, A. Aquila and R. Soufli. Optical constants of evaporation-deposited silicon monoxide films in the 7.1-800 eV photon energy range, J. Appl. Phys. 105, 113505 (2009) (Numerical data kindly provided by Juan Larruquert)
Comments: Density: 2.17 g/cm3. Film deposited at room temperature.
Specs: {"n_absolute": true, "wavelength_vacuum": true}
wavelength (um)	n	k
0.001548	0.99931557	0.000141
0.001556	0.99932568	0.000143
0.001564	0.99932107	0.000146
0.001572	0.99931671	0.00015
0.00158	0.99931064	0.000153
0.001588	0.9993046	0.000158
0.001596	0.9993012	0.00016
0.001604	0.99929432	0.000164
0.001612	0.99928937	0.000167
0.00162	0.99928484	0.000169
0.001628	0.99927787	0.000174
0.001636	0.99927292	0.000176
0.001644	0.99926807	0.000179
0.001652	0.9992649	0.000181
0.001668	0.99925048	0.000185
0.001684	0.99923862	0.000193
0.0017	0.99922718	0.000198
0.001716	0.99921652	0.000203
0.001732	0.99920324	0.000209
0.001748	0.99919169	0.000214
0.001764	0.99917937	0.000218
0.00178	0.99916567	0.000223
0.001796	0.99915281	0.00023
0.001812	0.99913761	0.000235
0.001828	0.99912507	0.000242
0.001844	0.99911062	0.000249
0.00186	0.99909606	0.000255
0.001876	0.99908272	0.000263
0.001892	0.99906901	0.000271
0.001908	0.99905464	0.000281
0.001924	0.99904337	0.000291
0.00194	0.99903063	0.000296
0.001956	0.999019	0.00031
0.001972	0.99900931	0.000321
0.001988	0.99899896	0.000329
0.002004	0.99898976	0.000338
0.00202	0.99898378	0.000345
0.002036	0.99897667	0.00035
0.002056	0.99896707	0.000353
0.002063	0.99896367	0.000350369
0.002067	0.99896017	0.000349289
0.002071	0.99895617	0.000348514
0.002075	0.9989518	0.000348039
0.002079	0.99894715	0.000347861
0.002083	0.99894226	0.000347976
0.002087	0.9989372	0.000348382
0.002091	0.99893199	0.000349075
0.002095	0.99892667	0.000350051
0.002099	0.99892127	0.000351308
0.002103	0.99891581	0.000352842
0.002107	0.99891031	0.00035465
0.002111	0.99890479	0.000356729
0.002115	0.99889928	0.000359076
0.002119	0.99889378	0.000361687
0.002123	0.99888832	0.00036456
0.002127	0.99888292	0.000367691
0.002131	0.99887759	0.000371078
0.002135	0.99887234	0.000374718
0.002139	0.99886719	0.000378608
0.002143	0.99886215	0.000382744
0.002147	0.99885725	0.000387125
0.002151	0.99885249	0.000391747
0.002155	0.9988479	0.000396607
0.002159	0.99884348	0.000401703
0.002163	0.99883925	0.000407033
0.002167	0.99883523	0.000412592
0.002171	0.99883144	0.00041838
0.002175	0.99882789	0.000424392
0.002179	0.9988246	0.000430627
0.002183	0.99882157	0.000437082
0.002187	0.99881883	0.000443754
0.002191	0.99881636	0.000450641
0.002195	0.99881416	0.000457741
0.002199	0.99881212	0.00046505
0.002203	0.99880999	0.000472567
0.002207	0.9988063	0.000480289
0.002211634	0.99879951	0.000499667
0.002214597	0.9988056	0.000521433
0.00223	0.99885937	0.000516
0.00225	0.99885022	0.0005
0.00227	0.99880928	0.000532
0.00229	0.9988288	0.000655
0.00231	0.99909971	0.000673
0.00233	0.99922493	0.000309
0.00235	0.99898008	0.000248
0.00237	0.99888498	0.000252
0.00239	0.99882305	0.000259
0.00241	0.99877114	0.000268
0.00243	0.99872775	0.000275
0.00245	0.99868914	0.000283
0.00247	0.99865013	0.000291
0.00249	0.99861746	0.0003
0.00251	0.99858245	0.000307
0.00253	0.99855034	0.000316
0.00255	0.99851778	0.000325
0.00257	0.9984876	0.000336
0.00259	0.99845607	0.000344
0.00261	0.99842762	0.000353
0.00263	0.99839344	0.00036
0.00265	0.99836461	0.000374
0.00267	0.99833869	0.000388
0.00269	0.99831105	0.000393
0.00271	0.99828193	0.0004
0.00273	0.99825238	0.000414
0.00275	0.99822219	0.000424
0.00277	0.99819469	0.000435
0.00279	0.99816639	0.000448
0.00284	0.99809619	0.000474489
0.00292	0.99798388	0.000519581
0.003	0.99787108	0.000565473
0.00308	0.99775676	0.000611858
0.00316	0.99764053	0.000658
0.00324	0.99751651	0.000702
0.00332	0.99738782	0.000758
0.0034	0.99726161	0.000816
0.00348	0.99713335	0.000875
0.00356	0.99700035	0.000945
0.00364	0.99686665	0.001007
0.00372	0.99673178	0.001082
0.0038	0.99659613	0.00116
0.00388	0.99645831	0.00125
0.00396	0.99631989	0.001333
0.00404	0.99618899	0.001429
0.00412	0.99605874	0.001527
0.0042	0.99592767	0.001611
0.00428	0.99581163	0.001711
0.00436	0.9956447	0.001754
0.00444	0.9955254	0.0019
0.004519999	0.99538945	0.001994
0.0046	0.99524919	0.002091
0.00468	0.99510474	0.002194
0.004759999	0.99494937	0.002297
0.00484	0.99479767	0.002435
0.004986666	0.99453387	0.002654
0.005133333	0.9942579	0.002904
0.005279999	0.99399236	0.003179
0.005426666	0.99374765	0.003471
0.005573333	0.993523	0.00377
0.00572	0.99331677	0.004066
0.005866666	0.99312595	0.004358
0.006013333	0.99293333	0.004636
0.006159999	0.99274073	0.004909
0.006306666	0.99253434	0.005176
0.006453333	0.99231552	0.005454
0.006619999	0.99207753	0.005804
0.006699999	0.99192889	0.005936
0.006779999	0.99179669	0.006119
0.006859999	0.99165821	0.006296
0.006939999	0.99149919	0.006492
0.007019999	0.99136177	0.006735
0.007099999	0.99126883	0.006984
0.007179999	0.99118702	0.007209
0.007259999	0.99110912	0.007429
0.007339999	0.9910342	0.007651
0.007419999	0.99097028	0.007876
0.007499999	0.99090877	0.008092
0.007579999	0.99083035	0.008309
0.007659999	0.99074548	0.008558
0.007739999	0.99067702	0.008882
0.007819999	0.990785	0.009232
0.007899999	0.99092734	0.009396
0.007979999	0.99101447	0.009542
0.008059999	0.99115117	0.009585
0.008139999	0.9911564	0.009565
0.008219999	0.99104319	0.00949
0.008299999	0.99081783	0.009583
0.008379999	0.99060972	0.009741
0.008459999	0.99044395	0.009963
0.008539999	0.99030158	0.01021
0.008619999	0.99018965	0.01048
0.008699999	0.99010229	0.010765
0.008779999	0.9900346	0.011057
0.008874999	0.98994467	0.011357
0.008974999	0.98988459	0.011802
0.009074999	0.98989844	0.012273
0.009174999	0.99000219	0.012766
0.009274999	0.99020439	0.013251
0.009374999	0.99050897	0.013711
0.009474999	0.99093143	0.014094
0.009574999	0.99146559	0.014376
0.009674999	0.99205033	0.014468
0.009774999	0.99262002	0.014353
0.009874999	0.99308211	0.014067
0.009974999	0.99336112	0.013673
0.010074999	0.99345092	0.013282
0.010174999	0.99339792	0.012956
0.010274999	0.99327466	0.012737
0.010374999	0.99314507	0.012646
0.010474998	0.99306097	0.012604
0.010574999	0.99302223	0.0126
0.010674999	0.99306206	0.012616
0.010774999	0.99320401	0.012589
0.010874999	0.99341968	0.012384
0.010974999	0.99351831	0.011992
0.011074999	0.99338925	0.011545
0.011174999	0.99304237	0.011211
0.011274999	0.99265324	0.011113
0.011374999	0.99238641	0.0112385
0.011474999	0.99244197	0.0112915
0.011574999	0.99232175	0.0110455
0.011674998	0.99205941	0.011107
0.011774999	0.99204692	0.011323
0.011874998	0.99238688	0.01158
0.011974998	0.99337733	0.011389
0.012074998	0.99402568	0.009971
0.012174999	0.99352982	0.008598
0.012274999	0.99284313	0.007727
0.012374999	0.99195551	0.006665
0.012474999	0.99046211	0.006189
0.012574999	0.98934772	0.006314
0.012674999	0.98849528	0.006482
0.012774999	0.98776397	0.006653
0.012874999	0.9871074	0.006834
0.012974999	0.98650283	0.007017
0.013074999	0.98593484	0.007202
0.013174999	0.98540026	0.007396
0.013274999	0.9848896	0.007585
0.013374999	0.98439713	0.007778
0.013474999	0.98392151	0.007974
0.013574999	0.98346209	0.008178
0.013674999	0.98301301	0.008375
0.013774999	0.98257723	0.008581
0.013874999	0.98214383	0.008785
0.013974999	0.9817263	0.008983
0.014074999	0.9813161	0.009196
0.014174999	0.98089775	0.009395
0.014349999	0.98022346	0.009801
0.014549998	0.97946192	0.010206
0.014749998	0.97871252	0.01063
0.014949999	0.97797383	0.011051
0.015149998	0.97723703	0.011477
0.015349998	0.97651323	0.011907
0.015549999	0.97579916	0.012342
0.015749998	0.97509276	0.012761
0.015949998	0.97436312	0.013205
0.016149998	0.9736603	0.013652
0.016349998	0.97294936	0.01409
0.016549998	0.97224694	0.014525
0.016749998	0.97152066	0.014966
0.016949998	0.97078638	0.015453
0.017149998	0.97009554	0.015913
0.017399998	0.96920384	0.016375
0.017799998	0.96769515	0.0173515
0.018199998	0.96617934	0.018362
0.018599998	0.96469437	0.0193995
0.018999998	0.96325222	0.0204655
0.019399998	0.96163439	0.021462
0.019799998	0.96007203	0.022617
0.020199998	0.95850871	0.023816
0.020599998	0.95694879	0.02504
0.020999998	0.95541184	0.026325
0.021399998	0.95387639	0.027644
0.021799998	0.95234734	0.028985
0.022199998	0.95084705	0.03036
0.022599998	0.94932861	0.031763
0.022999998	0.94785295	0.033161
0.023399998	0.94636617	0.034614
0.023799997	0.94488106	0.036011
0.024199998	0.94337677	0.037457
0.024599998	0.94180398	0.038922
0.024999997	0.94034844	0.042052
0.025399998	0.93903531	0.041998
0.025799998	0.93748074	0.043504
0.026199997	0.93591452	0.0450435
0.026599997	0.93433782	0.046618
0.026999997	0.93270189	0.048171
0.027399997	0.93051298	0.049816
0.027799997	0.92970857	0.0522825
0.028199997	0.92845986	0.053966
0.028599997	0.92720701	0.0556425
0.028999997	0.92592335	0.057301
0.029399997	0.92457555	0.0589715
0.029799997	0.92321488	0.0606255
0.030199997	0.92200642	0.062394
0.030599997	0.92069655	0.063823
0.030999997	0.91938878	0.065382
0.031399997	0.91814033	0.066883
0.031799997	0.91665205	0.068218
0.032199997	0.91522934	0.069777
0.032599997	0.91345865	0.071192
0.032999996	0.91202112	0.072522
0.033399997	0.91025357	0.074081
0.033799997	0.90853675	0.075507
0.034199997	0.90659474	0.076981
0.034599996	0.90463984	0.078411
0.034999997	0.90268246	0.080343
0.035399997	0.90066171	0.081592
0.035799996	0.89841132	0.083578
0.036199996	0.89630092	0.085194
0.036599997	0.89408513	0.087291
0.036999997	0.89185866	0.088795
0.037399996	0.88985087	0.091093
0.037799996	0.88746535	0.093154
0.038199996	0.88520593	0.095204
0.038599996	0.88320743	0.097294
0.038999995	0.88099695	0.099631
0.039399996	0.8783437	0.102159
0.039799996	0.87663597	0.104252
0.040199996	0.87374537	0.106922
0.040599996	0.87213563	0.108936
0.040999996	0.86928031	0.111349
0.041399996	0.86733779	0.114426
0.041799996	0.86408557	0.115324
0.042199996	0.8615058	0.119084
0.042599996	0.8581268	0.122019
0.042999995	0.85710669	0.1255
0.043399996	0.8557796	0.128773
0.043799996	0.85113137	0.131252
0.044199995	0.85033158	0.137014
0.045249703	0.84503683	0.140853
0.046610597	0.83560324	0.148798
0.048055887	0.82199905	0.159301
0.049593675	0.80535282	0.175823
0.051233135	0.7891949	0.200789
0.052984695	0.7787835	0.234027
0.067199992	0.81022228	0.45187323
0.091999994	1.0147902	0.68020502
0.119999984	1.2193781	0.82088232
0.149199984	1.480257	0.90104705
0.177120268	1.7369413	0.843139
