Material: main / InAs / Adachi
Optical constants. S. Adachi. Optical dispersion relations for GaP, GaAs, GaSb, InP, InAs, InSb, AlxGa1−xAs, and In1−xGaxAsyP1−y, J. Appl. Phys. 66, 6030-6040 (1989)[Calculation script (Python)]
wavelength (um)	n	k
2.0664e-01	1.2743e+00	1.5810e+00
2.0767e-01	1.2771e+00	1.5975e+00
2.0870e-01	1.2799e+00	1.6144e+00
2.0975e-01	1.2829e+00	1.6316e+00
2.1081e-01	1.2859e+00	1.6493e+00
2.1188e-01	1.2890e+00	1.6673e+00
2.1295e-01	1.2923e+00	1.6859e+00
2.1404e-01	1.2956e+00	1.7049e+00
2.1515e-01	1.2991e+00	1.7244e+00
2.1626e-01	1.3027e+00	1.7444e+00
2.1738e-01	1.3065e+00	1.7650e+00
2.1852e-01	1.3104e+00	1.7862e+00
2.1967e-01	1.3145e+00	1.8080e+00
2.2083e-01	1.3187e+00	1.8305e+00
2.2200e-01	1.3232e+00	1.8537e+00
2.2318e-01	1.3279e+00	1.8777e+00
2.2438e-01	1.3328e+00	1.9024e+00
2.2559e-01	1.3381e+00	1.9280e+00
2.2681e-01	1.3436e+00	1.9545e+00
2.2805e-01	1.3495e+00	1.9820e+00
2.2930e-01	1.3558e+00	2.0106e+00
2.3057e-01	1.3625e+00	2.0403e+00
2.3184e-01	1.3698e+00	2.0711e+00
2.3314e-01	1.3776e+00	2.1033e+00
2.3444e-01	1.3860e+00	2.1368e+00
2.3577e-01	1.3952e+00	2.1718e+00
2.3710e-01	1.4052e+00	2.2085e+00
2.3845e-01	1.4162e+00	2.2468e+00
2.3982e-01	1.4284e+00	2.2870e+00
2.4120e-01	1.4418e+00	2.3291e+00
2.4260e-01	1.4568e+00	2.3734e+00
2.4402e-01	1.4735e+00	2.4200e+00
2.4545e-01	1.4922e+00	2.4691e+00
2.4690e-01	1.5134e+00	2.5207e+00
2.4837e-01	1.5373e+00	2.5752e+00
2.4985e-01	1.5646e+00	2.6326e+00
2.5135e-01	1.5959e+00	2.6930e+00
2.5287e-01	1.6317e+00	2.7567e+00
2.5441e-01	1.6730e+00	2.8235e+00
2.5597e-01	1.7209e+00	2.8936e+00
2.5755e-01	1.7765e+00	2.9666e+00
2.5914e-01	1.8413e+00	3.0422e+00
2.6076e-01	1.9169e+00	3.1195e+00
2.6239e-01	2.0051e+00	3.1975e+00
2.6405e-01	2.1081e+00	3.2741e+00
2.6573e-01	2.2277e+00	3.3468e+00
2.6743e-01	2.3656e+00	3.4117e+00
2.6915e-01	2.5228e+00	3.4637e+00
2.7089e-01	2.6987e+00	3.4965e+00
2.7266e-01	2.8901e+00	3.5030e+00
2.7445e-01	3.0909e+00	3.4765e+00
2.7626e-01	3.2916e+00	3.4121e+00
2.7810e-01	3.4802e+00	3.3091e+00
2.7996e-01	3.6446e+00	3.1719e+00
2.8185e-01	3.7753e+00	3.0098e+00
2.8376e-01	3.8678e+00	2.8349e+00
2.8570e-01	3.9228e+00	2.6592e+00
2.8766e-01	3.9450e+00	2.4922e+00
2.8966e-01	3.9411e+00	2.3403e+00
2.9168e-01	3.9181e+00	2.2064e+00
2.9372e-01	3.8823e+00	2.0914e+00
2.9580e-01	3.8388e+00	1.9943e+00
2.9791e-01	3.7914e+00	1.9136e+00
3.0005e-01	3.7429e+00	1.8474e+00
3.0222e-01	3.6951e+00	1.7936e+00
3.0442e-01	3.6493e+00	1.7505e+00
3.0665e-01	3.6064e+00	1.7164e+00
3.0891e-01	3.5667e+00	1.6899e+00
3.1121e-01	3.5304e+00	1.6698e+00
3.1354e-01	3.4978e+00	1.6551e+00
3.1591e-01	3.4688e+00	1.6450e+00
3.1832e-01	3.4432e+00	1.6386e+00
3.2076e-01	3.4211e+00	1.6355e+00
3.2324e-01	3.4023e+00	1.6350e+00
3.2576e-01	3.3865e+00	1.6369e+00
3.2831e-01	3.3738e+00	1.6407e+00
3.3091e-01	3.3640e+00	1.6462e+00
3.3355e-01	3.3569e+00	1.6530e+00
3.3623e-01	3.3524e+00	1.6610e+00
3.3896e-01	3.3504e+00	1.6700e+00
3.4173e-01	3.3508e+00	1.6798e+00
3.4454e-01	3.3536e+00	1.6903e+00
3.4741e-01	3.3585e+00	1.7014e+00
3.5032e-01	3.3657e+00	1.7131e+00
3.5328e-01	3.3750e+00	1.7251e+00
3.5629e-01	3.3863e+00	1.7374e+00
3.5935e-01	3.3996e+00	1.7501e+00
3.6246e-01	3.4150e+00	1.7629e+00
3.6563e-01	3.4322e+00	1.7759e+00
3.6886e-01	3.4515e+00	1.7890e+00
3.7214e-01	3.4726e+00	1.8022e+00
3.7548e-01	3.4957e+00	1.8155e+00
3.7888e-01	3.5207e+00	1.8287e+00
3.8235e-01	3.5477e+00	1.8419e+00
3.8588e-01	3.5766e+00	1.8551e+00
3.8947e-01	3.6076e+00	1.8681e+00
3.9313e-01	3.6406e+00	1.8811e+00
3.9686e-01	3.6756e+00	1.8939e+00
4.0066e-01	3.7128e+00	1.9066e+00
4.0454e-01	3.7521e+00	1.9191e+00
4.0849e-01	3.7937e+00	1.9314e+00
4.1252e-01	3.8375e+00	1.9434e+00
4.1663e-01	3.8837e+00	1.9553e+00
4.2082e-01	3.9324e+00	1.9668e+00
4.2510e-01	3.9835e+00	1.9781e+00
4.2947e-01	4.0372e+00	1.9892e+00
4.3392e-01	4.0935e+00	2.0000e+00
4.3847e-01	4.1523e+00	2.0106e+00
4.4312e-01	4.2137e+00	2.0210e+00
4.4786e-01	4.2774e+00	2.0314e+00
4.5271e-01	4.3432e+00	2.0420e+00
4.5767e-01	4.4107e+00	2.0528e+00
4.6273e-01	4.4791e+00	2.0644e+00
4.6791e-01	4.5475e+00	2.0772e+00
4.7320e-01	4.6142e+00	2.0920e+00
4.7862e-01	4.6775e+00	2.1094e+00
4.8416e-01	4.7350e+00	2.1306e+00
4.8983e-01	4.7847e+00	2.1566e+00
4.9564e-01	4.8250e+00	2.1880e+00
5.0158e-01	4.8268e+00	2.1631e+00
5.0767e-01	4.7112e+00	1.8891e+00
5.1391e-01	4.6156e+00	1.6652e+00
5.2030e-01	4.5271e+00	1.4626e+00
5.2686e-01	4.4426e+00	1.2698e+00
5.3358e-01	4.3618e+00	1.0800e+00
5.4048e-01	4.2855e+00	8.8924e-01
5.4756e-01	4.2219e+00	7.3438e-01
5.5482e-01	4.1859e+00	7.2423e-01
5.6228e-01	4.1503e+00	7.1363e-01
5.6994e-01	4.1155e+00	7.0251e-01
5.7782e-01	4.0817e+00	6.9082e-01
5.8591e-01	4.0491e+00	6.7853e-01
5.9424e-01	4.0177e+00	6.6564e-01
6.0281e-01	3.9875e+00	6.5213e-01
6.1162e-01	3.9585e+00	6.3802e-01
6.2070e-01	3.9306e+00	6.2331e-01
6.3005e-01	3.9039e+00	6.0800e-01
6.3969e-01	3.8782e+00	5.9212e-01
6.4963e-01	3.8536e+00	5.7567e-01
6.5988e-01	3.8299e+00	5.5867e-01
6.7046e-01	3.8072e+00	5.4115e-01
6.8138e-01	3.7854e+00	5.2312e-01
6.9267e-01	3.7644e+00	5.0460e-01
7.0433e-01	3.7443e+00	4.8563e-01
7.1640e-01	3.7249e+00	4.6622e-01
7.2889e-01	3.7064e+00	4.4643e-01
7.4182e-01	3.6886e+00	4.2627e-01
7.5521e-01	3.6715e+00	4.0579e-01
7.6910e-01	3.6552e+00	3.8505e-01
7.8351e-01	3.6395e+00	3.6410e-01
7.9847e-01	3.6245e+00	3.4299e-01
8.1402e-01	3.6102e+00	3.2180e-01
8.3018e-01	3.5965e+00	3.0062e-01
8.4699e-01	3.5835e+00	2.7953e-01
8.6450e-01	3.5712e+00	2.5864e-01
8.8275e-01	3.5594e+00	2.3808e-01
9.0179e-01	3.5483e+00	2.1797e-01
9.2166e-01	3.5379e+00	1.9849e-01
9.4243e-01	3.5280e+00	1.7982e-01
9.6416e-01	3.5187e+00	1.6217e-01
9.8691e-01	3.5101e+00	1.4578e-01
1.0108e+00	3.5020e+00	1.3093e-01
1.0358e+00	3.4945e+00	1.1795e-01
1.0621e+00	3.4876e+00	1.0721e-01
1.0898e+00	3.4813e+00	9.9140e-02
1.1190e+00	3.4755e+00	9.4251e-02
1.1497e+00	3.4704e+00	9.3127e-02
1.1822e+00	3.4659e+00	9.5220e-02
1.2166e+00	3.4619e+00	9.7538e-02
1.2531e+00	3.4584e+00	9.9878e-02
1.2918e+00	3.4556e+00	1.0221e-01
1.3329e+00	3.4534e+00	1.0449e-01
1.3768e+00	3.4519e+00	1.0665e-01
1.4237e+00	3.4511e+00	1.0858e-01
1.4739e+00	3.4512e+00	1.1009e-01
1.5277e+00	3.4521e+00	1.1080e-01
1.5857e+00	3.4541e+00	1.0971e-01
1.6482e+00	3.4501e+00	1.0283e-01
1.7158e+00	3.4452e+00	1.0687e-01
1.7892e+00	3.4438e+00	1.1099e-01
1.8692e+00	3.4443e+00	1.1519e-01
1.9566e+00	3.4465e+00	1.1943e-01
2.0527e+00	3.4504e+00	1.2361e-01
2.1586e+00	3.4562e+00	1.2756e-01
2.2761e+00	3.4641e+00	1.3103e-01
2.4071e+00	3.4748e+00	1.3358e-01
2.5541e+00	3.4886e+00	1.3448e-01
2.7203e+00	3.5064e+00	1.3246e-01
2.9095e+00	3.5292e+00	1.2505e-01
3.1271e+00	3.5584e+00	1.0659e-01
3.3798e+00	3.5960e+00	5.4338e-02
3.6770e+00	3.5337e+00	2.0848e-03
4.0315e+00	3.5098e+00	1.9108e-03
4.4616e+00	3.4958e+00	1.7304e-03
4.9945e+00	3.4861e+00	1.5477e-03
5.6719e+00	3.4788e+00	1.3638e-03
6.5619e+00	3.4732e+00	1.1793e-03
7.7832e+00	3.4689e+00	9.9444e-04
9.5631e+00	3.4655e+00	8.0944e-04
1.2398e+01	3.4630e+00	6.2436e-04
