Material: main / MgF2 / Rodriguez-de Marcos
Optical constants. L. V. Rodríguez-de Marcos, J. I. Larruquert, J. A. Méndez, J. A. Aznárez. Self-consistent optical constants of MgF2, LaF3, and CeF3 films, Opt. Mater. Express 7, 989-1006 (2017) (Numerical data kindly provided by Juan Larruquert)
Comments: 44 nm film prepared by evaporation from tungsten boat at 250 °C
Specs: {"n_absolute": true, "wavelength_vacuum": true, "deposition_temperature": "250 °C"}
wavelength (um)	n	k
2.99919E-02	0.925222	0.121265
3.03887E-02	0.921308	0.124188
3.07906E-02	0.918523	0.129346
3.11979E-02	0.916696	0.134413
3.16106E-02	0.915383	0.139383
3.20287E-02	0.914430	0.144252
3.24524E-02	0.913749	0.149015
3.28817E-02	0.913282	0.153666
3.33166E-02	0.912986	0.158205
3.37573E-02	0.912826	0.162626
3.42038E-02	0.912773	0.166928
3.46563E-02	0.912798	0.171108
3.51147E-02	0.912879	0.175164
3.55792E-02	0.912992	0.179092
3.60498E-02	0.913113	0.182890
3.65266E-02	0.913220	0.186552
3.70098E-02	0.913290	0.190076
3.74994E-02	0.913298	0.193454
3.79954E-02	0.913217	0.196680
3.84980E-02	0.913018	0.199746
3.90072E-02	0.912667	0.202638
3.95232E-02	0.912124	0.205341
4.00460E-02	0.911338	0.207833
4.05757E-02	0.910215	0.210073
4.11124E-02	0.908650	0.212223
4.16562E-02	0.906781	0.214204
4.22072E-02	0.904480	0.215863
4.27655E-02	0.901596	0.217104
4.33312E-02	0.897915	0.217786
4.39044E-02	0.893073	0.217661
4.44851E-02	0.886119	0.216115
4.50736E-02	0.874226	0.215889
4.56698E-02	0.862125	0.218403
4.62739E-02	0.845459	0.219177
4.68860E-02	0.825903	0.230786
4.75062E-02	0.810427	0.244826
4.81346E-02	0.796222	0.257913
4.87713E-02	0.779386	0.267079
4.94164E-02	0.745432	0.281446
5.00701E-02	0.717622	0.320765
5.07324E-02	0.698967	0.363928
5.14034E-02	0.685944	0.422188
5.20834E-02	0.684162	0.478656
5.27723E-02	0.706307	0.537604
5.34704E-02	0.732930	0.584091
5.41777E-02	0.767008	0.622974
5.48943E-02	0.800562	0.651655
5.56204E-02	0.832896	0.676253
5.63562E-02	0.864781	0.698066
5.71016E-02	0.896693	0.717734
5.78569E-02	0.929049	0.735579
5.86222E-02	0.962218	0.751876
5.93977E-02	0.997087	0.766991
6.01834E-02	1.037218	0.779506
6.09794E-02	1.074883	0.778053
6.17861E-02	1.102642	0.780571
6.26033E-02	1.136286	0.789214
6.34314E-02	1.176999	0.789496
6.42705E-02	1.213175	0.782429
6.51206E-02	1.246522	0.773056
6.59820E-02	1.277927	0.761735
6.68548E-02	1.307786	0.747501
6.77391E-02	1.335435	0.729683
6.86352E-02	1.357095	0.705249
6.95430E-02	1.367051	0.680494
7.04629E-02	1.366384	0.672269
7.13950E-02	1.374723	0.673201
7.23394E-02	1.390648	0.691890
7.32962E-02	1.428864	0.686483
7.42658E-02	1.462661	0.674005
7.52481E-02	1.491426	0.645833
7.62435E-02	1.508482	0.617591
7.72520E-02	1.518591	0.591411
7.82739E-02	1.523838	0.571832
7.93092E-02	1.531088	0.555171
8.03583E-02	1.537895	0.538318
8.14213E-02	1.543639	0.521653
8.24983E-02	1.548272	0.505085
8.35895E-02	1.550008	0.487919
8.46952E-02	1.550279	0.474220
8.58155E-02	1.549761	0.461091
8.69507E-02	1.547536	0.447532
8.81008E-02	1.536346	0.435819
8.92662E-02	1.533004	0.459205
9.04470E-02	1.539810	0.437260
9.16434E-02	1.550929	0.455904
9.28556E-02	1.572935	0.427591
9.40838E-02	1.560470	0.390121
9.53284E-02	1.527699	0.392156
9.65893E-02	1.516092	0.394990
9.78670E-02	1.468672	0.384131
9.91615E-02	1.430197	0.438304
1.00473E-01	1.394182	0.561164
1.01802E-01	1.450337	0.693004
1.03149E-01	1.569325	0.838845
1.04513E-01	1.880297	0.972986
1.05896E-01	2.121767	0.616078
1.07296E-01	2.106338	0.459934
1.08716E-01	2.141217	0.267565
1.10154E-01	2.006438	0.124047
1.11611E-01	1.929626	0.101183
1.13087E-01	1.880776	0.078618
1.14583E-01	1.841058	0.058591
1.16099E-01	1.805479	0.039680
1.17634E-01	1.769535	0.029786
1.19190E-01	1.741882	0.024272
1.20767E-01	1.718549	0.020315
1.22364E-01	1.698347	0.017231
1.23983E-01	1.682190	0.013826
1.25623E-01	1.663965	0.008738
1.27285E-01	1.648120	0.008158
1.28968E-01	1.634597	0.007585
1.30674E-01	1.622525	0.007171
1.32403E-01	1.611762	0.006851
1.34154E-01	1.602063	0.006439
1.35929E-01	1.593031	0.005904
1.37727E-01	1.584389	0.005380
1.39549E-01	1.576586	0.005819
1.41395E-01	1.569897	0.005664
1.43265E-01	1.563341	0.005056
1.45160E-01	1.556899	0.004887
1.47080E-01	1.551137	0.004881
1.49026E-01	1.545778	0.004677
1.50997E-01	1.540682	0.004475
1.52994E-01	1.535856	0.004348
1.55018E-01	1.531395	0.004259
1.57068E-01	1.527324	0.004018
1.59146E-01	1.523300	0.003569
1.61251E-01	1.519329	0.003161
1.63384E-01	1.515418	0.002795
1.65545E-01	1.511685	0.002697
1.67735E-01	1.508206	0.002601
1.69954E-01	1.504913	0.002506
1.72202E-01	1.501780	0.002412
1.74480E-01	1.498792	0.002320
1.76788E-01	1.495935	0.002226
1.79126E-01	1.493195	0.002133
1.81496E-01	1.490558	0.002041
1.83896E-01	1.488009	0.001990
1.86329E-01	1.485592	0.001960
1.88793E-01	1.483285	0.001930
1.91291E-01	1.481077	0.001902
1.93821E-01	1.478961	0.001873
1.96385E-01	1.476931	0.001846
1.98983E-01	1.474983	0.001818
2.01615E-01	1.473110	0.001791
2.04282E-01	1.471311	0.001766
2.06984E-01	1.469580	0.001739
2.09722E-01	1.467914	0.001714
2.12496E-01	1.466310	0.001690
2.15307E-01	1.464765	0.001665
2.18155E-01	1.463276	0.001640
2.21040E-01	1.461840	0.001617
2.23964E-01	1.460456	0.001594
2.26927E-01	1.459120	0.001571
2.29928E-01	1.457831	0.001549
2.32970E-01	1.456587	0.001526
2.36051E-01	1.455385	0.001504
2.39174E-01	1.454224	0.001483
2.42337E-01	1.453102	0.001462
2.45543E-01	1.452018	0.001442
2.48791E-01	1.450969	0.001421
2.52082E-01	1.449955	0.001401
2.55416E-01	1.448975	0.001381
2.58795E-01	1.448027	0.001361
2.62218E-01	1.447109	0.001343
2.65687E-01	1.446220	0.001324
2.69201E-01	1.445360	0.001305
2.72762E-01	1.444527	0.001287
2.76370E-01	1.443721	0.001269
2.80025E-01	1.442939	0.001252
2.83730E-01	1.442183	0.001234
2.87483E-01	1.441449	0.001217
2.91285E-01	1.440738	0.001200
2.95138E-01	1.440050	0.001184
2.99042E-01	1.439382	0.001168
3.02998E-01	1.438735	0.001151
3.07006E-01	1.438107	0.001135
3.11067E-01	1.437498	0.001119
3.15182E-01	1.436907	0.001104
3.19351E-01	1.436334	0.001089
3.23575E-01	1.435779	0.001074
3.27855E-01	1.435239	0.001059
3.32192E-01	1.434716	0.001045
3.36586E-01	1.434208	0.001030
3.41038E-01	1.433715	0.001017
3.45549E-01	1.433237	0.001003
3.50120E-01	1.432772	0.000990
3.54751E-01	1.432321	0.000976
3.59444E-01	1.431883	0.000963
3.64198E-01	1.431458	0.000949
3.69016E-01	1.431045	0.000937
3.73897E-01	1.430644	0.000924
3.78843E-01	1.430254	0.000912
3.83854E-01	1.429876	0.000899
3.88931E-01	1.429508	0.000888
3.94076E-01	1.429151	0.000875
3.99289E-01	1.428804	0.000863
4.04570E-01	1.428466	0.000852
4.09922E-01	1.428139	0.000840
4.15344E-01	1.427820	0.000829
4.20838E-01	1.427510	0.000818
4.26405E-01	1.427210	0.000807
4.32045E-01	1.426918	0.000796
4.37760E-01	1.426633	0.000786
4.43551E-01	1.426357	0.000775
4.49418E-01	1.426088	0.000764
4.55362E-01	1.425827	0.000755
4.61386E-01	1.425573	0.000744
4.67489E-01	1.425326	0.000735
4.73673E-01	1.425086	0.000725
4.79938E-01	1.424853	0.000715
4.86287E-01	1.424626	0.000706
4.92719E-01	1.424405	0.000696
4.99237E-01	1.424190	0.000687
5.05840E-01	1.423982	0.000678
5.12531E-01	1.423778	0.000668
5.19311E-01	1.423581	0.000660
5.26180E-01	1.423389	0.000651
5.33140E-01	1.423201	0.000643
5.40192E-01	1.423020	0.000634
5.47338E-01	1.422843	0.000625
5.54578E-01	1.422671	0.000617
5.61914E-01	1.422504	0.000609
5.69346E-01	1.422340	0.000601
5.76877E-01	1.422182	0.000593
5.84508E-01	1.422028	0.000585
5.92240E-01	1.421878	0.000577
6.00074E-01	1.421732	0.000569
6.08011E-01	1.421590	0.000562
6.16054E-01	1.421452	0.000555
6.24203E-01	1.421317	0.000547
6.32459E-01	1.421186	0.000540
6.40825E-01	1.421059	0.000533
6.49302E-01	1.420935	0.000526
6.57891E-01	1.420814	0.000519
6.66593E-01	1.420697	0.000512
6.75410E-01	1.420583	0.000505
6.84345E-01	1.420471	0.000498
6.93397E-01	1.420363	0.000492
7.02569E-01	1.420258	0.000486
7.11862E-01	1.420155	0.000479
7.21278E-01	1.420055	0.000473
7.30819E-01	1.419958	0.000466
7.40486E-01	1.419863	0.000460
7.50281E-01	1.419772	0.000455
7.60205E-01	1.419682	0.000448
7.70261E-01	1.419594	0.000443
7.80450E-01	1.419510	0.000437
7.90773E-01	1.419427	0.000431
8.01233E-01	1.419347	0.000426
8.11832E-01	1.419268	0.000420
8.22570E-01	1.419192	0.000414
8.33451E-01	1.419118	0.000409
8.44476E-01	1.419046	0.000403
8.55646E-01	1.418975	0.000398
8.66964E-01	1.418907	0.000393
8.78432E-01	1.418840	0.000388
8.90052E-01	1.418775	0.000382
9.01825E-01	1.418712	0.000378
9.13754E-01	1.418650	0.000373
9.25841E-01	1.418590	0.000367
9.38087E-01	1.418532	0.000363
9.50496E-01	1.418475	0.000358
9.63069E-01	1.418420	0.000353
9.75808E-01	1.418366	0.000349
9.88715E-01	1.418314	0.000344
1.00179E+00	1.418262	0.000339
1.01505E+00	1.418212	0.000336
1.02847E+00	1.418164	0.000331
1.04208E+00	1.418117	0.000326
1.05586E+00	1.418071	0.000322
1.06983E+00	1.418027	0.000318
1.08398E+00	1.417983	0.000314
1.09832E+00	1.417941	0.000309
1.11284E+00	1.417899	0.000306
1.12756E+00	1.417859	0.000302
1.14248E+00	1.417820	0.000298
1.15759E+00	1.417782	0.000293
1.17290E+00	1.417745	0.000290
1.18842E+00	1.417709	0.000286
1.20414E+00	1.417674	0.000282
1.22007E+00	1.417639	0.000278
1.23621E+00	1.417606	0.000275
1.25256E+00	1.417574	0.000271
1.26913E+00	1.417542	0.000268
1.28591E+00	1.417511	0.000264
1.30292E+00	1.417481	0.000261
1.32016E+00	1.417452	0.000258
1.33762E+00	1.417423	0.000254
1.35531E+00	1.417395	0.000250
1.37324E+00	1.417368	0.000248
1.39141E+00	1.417342	0.000244
1.40981E+00	1.417317	0.000241
1.42846E+00	1.417292	0.000238
1.44735E+00	1.417267	0.000235
1.46650E+00	1.417244	0.000232
1.48590E+00	1.417221	0.000229
1.50555E+00	1.417198	0.000225
1.52547E+00	1.417176	0.000222
1.54565E+00	1.417155	0.000220
1.56609E+00	1.417134	0.000217
1.58681E+00	1.417114	0.000214
1.60780E+00	1.417095	0.000211
1.62906E+00	1.417075	0.000208
1.65061E+00	1.417057	0.000206
1.67245E+00	1.417039	0.000203
1.69457E+00	1.417021	0.000200
1.71698E+00	1.417004	0.000198
1.73969E+00	1.416987	0.000195
1.76271E+00	1.416970	0.000193
1.78602E+00	1.416955	0.000190
1.80965E+00	1.416939	0.000188
1.83359E+00	1.416924	0.000185
1.85784E+00	1.416909	0.000183
1.88241E+00	1.416895	0.000180
1.90731E+00	1.416881	0.000178
1.93254E+00	1.416868	0.000176
1.95811E+00	1.416854	0.000173
1.98401E+00	1.416842	0.000171
