Material: main / Kr / Sinnock-solid-105K
Optical constants. A. C. Sinnock and B. L. Smith. Refractive indices of the condensed inert gases, Phys. Rev. 181, 1297-1307 (1969)
Comments: Solid krypton at 105 K (-168.15 Â°C).
Specs: {"temperature": "105 K"}
wavelength (um)	n
0.3631	1.3638
0.4063	1.3600
0.4358	1.3578
0.4753	1.3554
0.5086	1.3538
0.5461	1.3524
0.5780	1.3514
0.6439	1.3498
