Material: main / Kr / Sinnock-solid-75K
Optical constants. A. C. Sinnock and B. L. Smith. Refractive indices of the condensed inert gases, Phys. Rev. 181, 1297-1307 (1969)
Comments: Solid krypton at 75 K (-198.15 Â°C).
Specs: {"temperature": "75 K"}
wavelength (um)	n
0.3631	1.3761
0.4063	1.3723
0.4358	1.3701
0.4753	1.3678
0.5086	1.3662
0.5461	1.3648
0.5780	1.3638
0.6439	1.3622
