Material: main / Kr / Sinnock-liquid-126K
Optical constants. A. C. Sinnock and B. L. Smith. Refractive indices of the condensed inert gases, Phys. Rev. 181, 1297-1307 (1969)
Comments: Liquid krypton at 126 K (-147.15 Â°C).
Specs: {"temperature": "126 K"}
wavelength (um)	n
0.3631	1.3003
0.4063	1.2973
0.4358	1.2957
0.4753	1.2938
0.5086	1.2924
0.5461	1.2915
0.5780	1.2906
0.6439	1.2893
