Material: main / Kr / Sinnock-solid-115.95K
Optical constants. A. C. Sinnock and B. L. Smith. Refractive indices of the condensed inert gases, Phys. Rev. 181, 1297-1307 (1969)
Comments: Solid krypton at 115.95 K (-157.20 Â°C, melting point).
Specs: {"temperature": "115.95 K"}
wavelength (um)	n
0.3631	1.3576
0.4063	1.3537
0.4358	1.3515
0.4753	1.3492
0.5086	1.3476
0.5461	1.3462
0.5780	1.3451
0.6439	1.3436
