Material: main / Kr / Sinnock-liquid-122K
Optical constants. A. C. Sinnock and B. L. Smith. Refractive indices of the condensed inert gases, Phys. Rev. 181, 1297-1307 (1969)
Comments: Liquid krypton at 122 K (-151.15 Â°C).
Specs: {"temperature": "122 K"}
wavelength (um)	n
0.3631	1.3048
0.4063	1.3018
0.4358	1.3002
0.4753	1.2984
0.5086	1.2970
0.5461	1.2960
0.5780	1.2952
0.6439	1.2939
