Material: main / Kr / Sinnock-solid-85K
Optical constants. A. C. Sinnock and B. L. Smith. Refractive indices of the condensed inert gases, Phys. Rev. 181, 1297-1307 (1969)
Comments: Solid krypton at 85 K (-188.15 Â°C).
Specs: {"temperature": "85 K"}
wavelength (um)	n
0.3631	1.3726
0.4063	1.3688
0.4358	1.3666
0.4753	1.3642
0.5086	1.3627
0.5461	1.3612
0.5780	1.3602
0.6439	1.3587
