Material: main / Kr / Sinnock-solid-95K
Optical constants. A. C. Sinnock and B. L. Smith. Refractive indices of the condensed inert gases, Phys. Rev. 181, 1297-1307 (1969)
Comments: Solid krypton at 95 K (-178.15 Â°C).
Specs: {"temperature": "95 K"}
wavelength (um)	n
0.3631	1.3686
0.4063	1.3648
0.4358	1.3626
0.4753	1.3603
0.5086	1.3587
0.5461	1.3572
0.5780	1.3562
0.6439	1.3547
