Material: main / Kr / Sinnock-liquid-115.95K
Optical constants. A. C. Sinnock and B. L. Smith. Refractive indices of the condensed inert gases, Phys. Rev. 181, 1297-1307 (1969)
Comments: Liquid krypton at 115.95 K (-157.20 Â°C, melting point).
Specs: {"temperature": "115.95 K"}
wavelength (um)	n
0.3631	1.3120
0.4063	1.3090
0.4358	1.3074
0.4753	1.3056
0.5086	1.3042
0.5461	1.3032
0.5780	1.3024
0.6439	1.3011
