Material: main / Kr / Smith
Optical constants. P. L. Smith, M. C. E. Huber, W. H. Parkinson. Refractivities of H2, He, O2, CO, and Kr for 168≤λ≤288 nm Phys Rev. A 13, 199-203 (1976)
Comments: Standard conditions: 0 °C (273.15 K), 760 torr (101.325 kPa).
Specs: {"n_absolute": true, "wavelength_vacuum": true, "temperature": "0 °C", "pressure": "101325 Pa"}
wavelength (um)	n
0.16410	1.0005977
0.16796	1.0005844
0.16846	1.0005828
0.16991	1.0005783
0.17020	1.0005774
0.17044	1.0005767
0.17134	1.0005741
0.17226	1.0005715
0.17427	1.0005661
0.17709	1.0005589
0.18080	1.0005504
0.18169	1.0005485
0.18365	1.0005444
0.18440	1.0005430
0.18475	1.0005423
0.18507	1.0005417
0.19013	1.0005325
0.19776	1.0005208
0.19832	1.0005200
0.19890	1.0005192
0.20255	1.0005144
0.20588	1.0005104
0.20620	1.0005100
0.21248	1.0005032
0.21390	1.0005018
0.21444	1.0005012
0.21946	1.0004965
0.22087	1.0004953
0.22116	1.0004950
0.22174	1.0004945
0.22650	1.0004907
0.22880	1.0004890
0.23021	1.0004879
0.23293	1.0004859
0.23456	1.0004848
0.23800	1.0004825
0.24359	1.0004791
0.24469	1.0004785
0.24641	1.0004775
0.25077	1.0004752
0.25169	1.0004747
0.25293	1.0004741
0.25731	1.0004719
0.25763	1.0004718
0.26321	1.0004693
0.26750	1.0004675
0.27486	1.0004646
0.27538	1.0004644
0.27597	1.0004642
0.28369	1.0004615
0.28570	1.0004609
0.28824	1.0004601
0.28936	1.0004597
0.29254	1.0004588
0.29806	1.0004572
