Material: main / TiC / Pfluger
Optical constants. 1) J. Pflüger, J. Fink. Determination of optical constants by high-energy, electron-energy-loss spectroscopy (EELS), in Handbook of optical constants of solids II, Edward D. Palik, ed. Academic Press, 1991. pp. 293-3102) J. Pflüger, J. Fink, W. Weber, K. P. Bohnen, G. Crecelius. Dielectric properties of TiCx, TiNx, VCx, and VNx from 1.5 to 40 eV determined by electron-energy-loss spectroscopy, Phys. Rev. B 30, 1155-1163 (1984)
Comments: TiC1.0. Room temperature.
wavelength (um)	n	k
0.03107	8.40E-1	5.05E-2
0.03179	8.53E-1	1.01E-2
0.03263	8.63E-1	8.96E-2
0.03351	8.53E-1	8.41E-2
0.03444	8.39E-1	7.97E-2
0.03542	8.26E-1	7.95E-2
0.03646	8.08E-1	8.10E-2
0.03757	7.85E-1	8.30E-2
0.03874	7.62E-1	8.92E-2
0.03999	7.34E-1	1.07E-1
0.04133	7.09E-1	1.23E-1
0.04275	6.79E-1	1.45E-1
0.04428	6.54E-1	1.74E-1
0.04592	6.27E-1	2.10E-1
0.04768	6.03E-1	2.48E-1
0.04959	5.79E-1	2.91E-1
0.05166	5.47E-1	3.44E-1
0.05390	5.23E-1	4.21E-1
0.05635	5.23E-1	5.16E-1
0.05904	5.51E-1	6.04E-1
0.06199	6.03E-1	6.75E-1
0.06525	6.57E-1	7.29E-1
0.06888	6.88E-1	7.50E-1
0.07293	7.06E-1	8.01E-1
0.07749	7.23E-1	8.59E-1
0.08265	7.47E-1	9.62E-1
0.08856	8.70E-1	1.03E0
0.09537	9.59E-1	1.02E0
0.1033	9.42E-1	9.80E-1
0.1078	8.67E-1	9.60E-1
0.1127	7.45E-1	1.06E0
0.1181	7.25E-1	1.25E0
0.1240	8.01E-1	1.44E0
0.1305	9.55E-1	1.50E0
0.1378	1.00E0	1.55E0
0.1459	1.07E0	1.63E0
0.1550	1.12E0	1.69E0
0.1653	1.21E0	1.84E0
0.1771	1.42E0	1.89E0
0.1907	1.43E0	1.86E0
0.2066	1.52E0	2.02E0
0.2254	1.74E0	2.20E0
0.2480	1.96E0	2.25E0
0.2755	2.16E0	2.31E0
0.3100	2.30E0	2.33E0
0.3542	2.57E0	2.34E0
0.4133	2.78E0	2.43E0
0.4959	2.95E0	2.38E0
0.6199	3.05E0	2.67E0
0.8266	3.51E0	3.07E0
1.2399	3.97E0	3.78E0
2.4797	5.44E0	5.54E0
