Material: main / Xe / Koch
Optical constants. J. Koch. Kungl. Fysiografiska Sällskapets i Lund Förhandlingar (Proceedings of the Royal Physiographic Society at Lund) 19, 173 (1949) (as cited in P. J. Leonard. Refractive indices, Verdet constants, and polarizabilities of the inert gases, Atomic Data and Nuclear Data Tables 14, 21-37 (1974))
Comments: Wavelength is λair at 15 °C
Specs: {"n_absolute": true, "wavelength_vacuum": false}
wavelength (um)	n
0.230209	1.00085519
0.234555	1.00084664
0.2379990	1.00084025
0.2446905	1.00082907
0.2464068	1.00082640
0.2576295	1.00081078
0.2674990	1.00079923
0.2752775	1.00079124
0.2759712	1.00079060
0.2856969	1.00078186
0.2893595	1.00077885
0.2925406	1.00077637
0.3341478	1.00075143
0.3801658	1.00073430
0.4108066	1.00072623
0.4916036	1.00071241
0.567717	1.00070477
0.607262	1.00070188
0.612327	1.00070157
0.623437	1.00070091
