Material: main / Xe / Sinnock-solid-130K
Optical constants. A. C. Sinnock and B. L. Smith. Refractive indices of the condensed inert gases, Phys. Rev. 181, 1297-1307 (1969)
Comments: Solid xenon at 130 K (-143.15 Â°C).
Specs: {"temperature": "130 K"}
wavelength (um)	n
0.3612	1.4901
0.3650	1.4890
0.4063	1.4804
0.4358	1.4763
0.4700	1.4726
0.4806	1.4715
0.5086	1.4690
0.5461	1.4662
0.5780	1.4641
0.6439	1.4616
