Material: main / Xe / Sinnock-solid-110K
Optical constants. A. C. Sinnock and B. L. Smith. Refractive indices of the condensed inert gases, Phys. Rev. 181, 1297-1307 (1969)
Comments: Solid xenon at 110 K (-163.15 Â°C).
Specs: {"temperature": "110 K"}
wavelength (um)	n
0.3612	1.4986
0.3650	1.4974
0.4063	1.4889
0.4358	1.4848
0.4700	1.4811
0.4806	1.4800
0.5086	1.4775
0.5461	1.4748
0.5780	1.4727
0.6439	1.4701
