Material: main / Xe / Sinnock-solid-161.35K
Optical constants. A. C. Sinnock and B. L. Smith. Refractive indices of the condensed inert gases, Phys. Rev. 181, 1297-1307 (1969)
Comments: Solid xenon at 161.35 K (-111.80 Â°C, melting point).
Specs: {"temperature": "161.35 K"}
wavelength (um)	n
0.3612	1.4747
0.3650	1.4736
0.4063	1.4650
0.4358	1.4608
0.4700	1.4571
0.4806	1.4560
0.5086	1.4535
0.5461	1.4507
0.5780	1.4486
0.6439	1.4461
