Material: main / Xe / Sinnock-liquid-170K
Optical constants. A. C. Sinnock and B. L. Smith. Refractive indices of the condensed inert gases, Phys. Rev. 181, 1297-1307 (1969)
Comments: Liquid xenon at 170 K (-103.15 Â°C).
Specs: {"temperature": "170 K"}
wavelength (um)	n
0.3612	1.4025
0.3650	1.4017
0.4063	1.3956
0.4358	1.3916
0.4700	1.3882
0.4806	1.3872
0.5086	1.3851
0.5461	1.3832
0.5780	1.3814
0.6439	1.3790
