Material: main / Xe / Sinnock-liquid-178K
Optical constants. A. C. Sinnock and B. L. Smith. Refractive indices of the condensed inert gases, Phys. Rev. 181, 1297-1307 (1969)
Comments: Liquid xenon at 178 K (-95.15 Â°C).
Specs: {"temperature": "178 K"}
wavelength (um)	n
0.3612	1.3944
0.3650	1.3936
0.4063	1.3874
0.4358	1.3834
0.4700	1.3800
0.4806	1.3790
0.5086	1.3770
0.5461	1.3750
0.5780	1.3732
0.6439	1.3708
