Material: main / Xe / Sinnock-liquid-166K
Optical constants. A. C. Sinnock and B. L. Smith. Refractive indices of the condensed inert gases, Phys. Rev. 181, 1297-1307 (1969)
Comments: Liquid xenon at 166 K (-107.15 Â°C).
Specs: {"temperature": "166 K"}
wavelength (um)	n
0.3612	1.4065
0.3650	1.4057
0.4063	1.3995
0.4358	1.3955
0.4700	1.3921
0.4806	1.3911
0.5086	1.3891
0.5461	1.3871
0.5780	1.3853
0.6439	1.3830
