Material: main / Xe / Sinnock-liquid-174K
Optical constants. A. C. Sinnock and B. L. Smith. Refractive indices of the condensed inert gases, Phys. Rev. 181, 1297-1307 (1969)
Comments: Liquid xenon at 174 K (-99.15 Â°C).
Specs: {"temperature": "174 K"}
wavelength (um)	n
0.3612	1.3984
0.3650	1.3976
0.4063	1.3914
0.4358	1.3874
0.4700	1.3840
0.4806	1.3830
0.5086	1.3809
0.5461	1.3790
0.5780	1.3772
0.6439	1.3748
