Material: main / Xe / Sinnock-solid-90K
Optical constants. A. C. Sinnock and B. L. Smith. Refractive indices of the condensed inert gases, Phys. Rev. 181, 1297-1307 (1969)
Comments: Solid xenon at 90 K (-183.15 Â°C).
Specs: {"temperature": "90 K"}
wavelength (um)	n
0.3612	1.5058
0.3650	1.5047
0.4063	1.4962
0.4358	1.4921
0.4700	1.4884
0.4806	1.4873
0.5086	1.4848
0.5461	1.4821
0.5780	1.4800
0.6439	1.4775
