Material: main / Xe / Sinnock-solid-140K
Optical constants. A. C. Sinnock and B. L. Smith. Refractive indices of the condensed inert gases, Phys. Rev. 181, 1297-1307 (1969)
Comments: Solid xenon at 140 K (-133.15 Â°C).
Specs: {"temperature": "140 K"}
wavelength (um)	n
0.3612	1.4855
0.3650	1.4843
0.4063	1.4757
0.4358	1.4716
0.4700	1.4679
0.4806	1.4668
0.5086	1.4643
0.5461	1.4616
0.5780	1.4594
0.6439	1.4569
