Material: main / Xe / Sinnock-solid-100K
Optical constants. A. C. Sinnock and B. L. Smith. Refractive indices of the condensed inert gases, Phys. Rev. 181, 1297-1307 (1969)
Comments: Solid xenon at 100 K (-173.15 Â°C).
Specs: {"temperature": "100 K"}
wavelength (um)	n
0.3612	1.5024
0.3650	1.5012
0.4063	1.4927
0.4358	1.4886
0.4700	1.4849
0.4806	1.4838
0.5086	1.4814
0.5461	1.4786
0.5780	1.4765
0.6439	1.4740
