Material: main / Xe / Sinnock-solid-120K
Optical constants. A. C. Sinnock and B. L. Smith. Refractive indices of the condensed inert gases, Phys. Rev. 181, 1297-1307 (1969)
Comments: Solid xenon at 120 K (-153.15 Â°C).
Specs: {"temperature": "120 K"}
wavelength (um)	n
0.3612	1.4945
0.3650	1.4934
0.4063	1.4848
0.4358	1.4807
0.4700	1.4770
0.4806	1.4759
0.5086	1.4734
0.5461	1.4706
0.5780	1.4686
0.6439	1.4660
