Material: main / Xe / Sinnock-solid-150K
Optical constants. A. C. Sinnock and B. L. Smith. Refractive indices of the condensed inert gases, Phys. Rev. 181, 1297-1307 (1969)
Comments: Solid xenon at 150 K (-123.15 Â°C).
Specs: {"temperature": "150 K"}
wavelength (um)	n
0.3612	1.4805
0.3650	1.4794
0.4063	1.4708
0.4358	1.4667
0.4700	1.4629
0.4806	1.4619
0.5086	1.4594
0.5461	1.4566
0.5780	1.4545
0.6439	1.4520
