Material: main / Pd / Palm
Optical constants. K. J. Palm, J. B. Murray, T. C. Narayan, J. N. Munday. Dynamic optical properties of metal hydrides, ACS Photonics 5, 4677-4686 (2018)(Numerical data kindly provided by Kevin Palm)
Comments: Palladium, Room temperature, 200 nm thin film, electron beam evaporated, vacuum annealed 2 hr 350 Â°C.
wavelength (um)	n	k
0.250019531	1.033012	1.98789
0.253212234	1.045543	2.013617
0.256404968	1.058475	2.038765
0.259597809	1.07196	2.062853
0.262790649	1.085583	2.085436
0.265983551	1.098815	2.106403
0.269176483	1.111141	2.125834
0.272369446	1.122049	2.143965
0.275562469	1.131016	2.161298
0.278755524	1.137947	2.178715
0.281948608	1.143212	2.196806
0.285141693	1.147232	2.215899
0.288334839	1.150428	2.236161
0.291527985	1.153211	2.257638
0.29472113	1.155986	2.280254
0.297914307	1.159073	2.30372
0.301107483	1.16252	2.327731
0.30430069	1.166287	2.352107
0.307493866	1.170319	2.376734
0.310687073	1.17455	2.401541
0.31388028	1.178908	2.426497
0.317073456	1.183312	2.451609
0.320266632	1.187673	2.476964
0.323459808	1.192036	2.50274
0.326652954	1.196549	2.529017
0.32984613	1.201366	2.555808
0.333039246	1.206635	2.583079
0.33623233	1.212493	2.610765
0.339425385	1.219069	2.63877
0.342618439	1.226489	2.666965
0.345811462	1.234881	2.695178
0.349004425	1.244354	2.723105
0.352197357	1.254779	2.750381
0.355390259	1.265915	2.776801
0.358583099	1.277525	2.802257
0.361775909	1.289379	2.826705
0.364968658	1.301263	2.850142
0.368161346	1.312973	2.872605
0.371353973	1.324319	2.89416
0.37454657	1.335118	2.914906
0.377739075	1.345191	2.934979
0.380931549	1.354347	2.954586
0.384123932	1.362512	2.974085
0.387316223	1.369811	2.993762
0.390508484	1.376403	3.013792
0.393700623	1.382447	3.03429
0.396892731	1.388101	3.055327
0.400084717	1.393514	3.076941
0.403276642	1.398829	3.099146
0.406468445	1.404182	3.12193
0.409660156	1.4097	3.145264
0.412851807	1.415501	3.1691
0.416043304	1.4217	3.193372
0.419234772	1.428408	3.217989
0.422426086	1.435734	3.242811
0.425617279	1.443697	3.267634
0.428808411	1.452233	3.292315
0.43199942	1.461269	3.316756
0.435190277	1.47073	3.340891
0.438381012	1.480542	3.36467
0.441571625	1.490635	3.388063
0.444762146	1.500941	3.411048
0.447952545	1.511397	3.433615
0.451142761	1.521941	3.455762
0.454332855	1.532516	3.477495
0.457522858	1.543069	3.498825
0.460712708	1.553548	3.519768
0.463902405	1.563904	3.54035
0.467091888	1.574089	3.560599
0.470281311	1.584056	3.580555
0.47347052	1.593758	3.600281
0.476659607	1.603191	3.619859
0.479848541	1.612376	3.639344
0.483037292	1.621336	3.658778
0.486225891	1.630095	3.678191
0.489414307	1.638677	3.697606
0.492602539	1.647107	3.717041
0.495790619	1.655406	3.73651
0.498978516	1.663597	3.756021
0.50216626	1.6717	3.775583
0.505353821	1.679735	3.795198
0.508541168	1.68772	3.814868
0.511728333	1.695672	3.834595
0.514915283	1.703608	3.854376
0.518102051	1.711543	3.874207
0.521288696	1.719492	3.894085
0.524475037	1.727467	3.914004
0.527661255	1.735482	3.933956
0.530847168	1.74355	3.953933
0.534032959	1.751681	3.973925
0.537218506	1.759889	3.993917
0.540403809	1.768177	4.013888
0.543588928	1.776541	4.033822
0.546773804	1.784976	4.053707
0.549958496	1.793479	4.073534
0.553142944	1.802042	4.093297
0.556327148	1.810661	4.112987
0.559511108	1.819329	4.132601
0.562694824	1.828043	4.152133
0.565878296	1.836794	4.171582
0.569061646	1.84558	4.190943
0.572244629	1.854395	4.210216
0.575427368	1.863232	4.229397
0.578609863	1.872088	4.248487
0.581792114	1.880958	4.267485
0.584974121	1.889836	4.286391
0.588155884	1.89872	4.305204
0.591337341	1.907603	4.323925
0.594518555	1.916482	4.342556
0.597699524	1.925354	4.361097
0.600880188	1.934213	4.379549
0.604060608	1.943055	4.397913
0.607240723	1.951878	4.416194
0.610420532	1.960677	4.434391
0.613600098	1.969448	4.452509
0.616779358	1.978188	4.47055
0.619958374	1.986892	4.488519
0.623137024	1.995556	4.506423
0.62631543	2.004183	4.52427
0.62949353	2.012772	4.542064
0.632671265	2.021328	4.55981
0.635848755	2.029852	4.577511
0.639026001	2.038347	4.595169
0.64220282	2.046816	4.612786
0.645379395	2.055259	4.630365
0.648555664	2.063681	4.647906
0.651731567	2.072082	4.66541
0.654907166	2.080464	4.682877
0.658082458	2.088829	4.700308
0.661257446	2.09718	4.717705
0.664432007	2.105517	4.735066
0.667606323	2.113842	4.752391
0.670780273	2.122157	4.769682
0.673953857	2.130462	4.786937
0.677127136	2.138759	4.804155
0.680300049	2.147049	4.821338
0.683472656	2.155333	4.838485
0.686644897	2.163611	4.855594
0.689816772	2.171885	4.872666
0.69298822	2.180156	4.889699
0.696159424	2.188423	4.906694
0.6993302	2.196688	4.923651
0.70250061	2.204951	4.940567
0.705670715	2.213213	4.957442
0.708840393	2.221473	4.974276
0.712009705	2.229733	4.991069
0.715178589	2.237992	5.007818
0.718347168	2.246251	5.024525
0.721515381	2.254511	5.041188
0.724683167	2.262771	5.057806
0.727850525	2.271031	5.074378
0.731017578	2.279292	5.090903
0.734184204	2.287555	5.107381
0.737350403	2.295818	5.12381
0.740516235	2.304083	5.140189
0.743681641	2.312348	5.156515
0.746846619	2.320612	5.172788
0.75001123	2.328874	5.189006
0.753175415	2.337133	5.205169
0.756339233	2.345388	5.221277
0.759502563	2.353637	5.237328
0.762665527	2.361879	5.253323
0.765828003	2.370114	5.26926
0.768990112	2.378339	5.285141
0.772151733	2.386555	5.300965
0.775312988	2.394759	5.316731
0.778473755	2.402951	5.332441
0.781634155	2.41113	5.348093
0.784794067	2.419294	5.363688
0.787953552	2.427444	5.379227
0.79111261	2.435577	5.394709
0.794271118	2.443692	5.410134
0.797429321	2.45179	5.425503
0.800586975	2.459869	5.440817
0.803744202	2.467928	5.456075
0.80690094	2.475966	5.471278
0.810057251	2.483982	5.486426
0.813213013	2.491976	5.501521
0.816368408	2.499948	5.516561
0.819523254	2.507895	5.531548
0.822677734	2.515817	5.546482
0.825831665	2.523715	5.561364
0.828985046	2.531586	5.576193
0.832138062	2.539431	5.590972
0.835290527	2.547248	5.6057
0.838442505	2.555037	5.620377
0.841594055	2.562798	5.635005
0.844744995	2.570529	5.649583
0.847895508	2.578231	5.664113
0.851045593	2.585902	5.678595
0.854195007	2.593543	5.693029
0.857344055	2.601151	5.707417
0.860492554	2.608729	5.721759
0.863640503	2.616273	5.736055
0.866787964	2.623785	5.750307
0.869934937	2.631263	5.764514
0.87308136	2.638707	5.778678
0.876227356	2.646117	5.792799
0.879372681	2.653492	5.806878
0.882517456	2.660832	5.820915
0.885661804	2.668137	5.834912
0.888805664	2.675405	5.848868
0.891948914	2.682637	5.862786
0.895091614	2.689831	5.876665
0.898233765	2.696989	5.890506
0.901375366	2.704109	5.90431
0.904516479	2.71119	5.918079
0.907656921	2.718233	5.931812
0.910796997	2.725237	5.945512
0.91393634	2.732202	5.959179
0.917075195	2.739129	5.972816
0.920213501	2.746017	5.986422
0.923351257	2.752867	5.999999
0.926488403	2.759679	6.013547
0.929625	2.766454	6.027067
0.932760925	2.773191	6.04056
0.935896362	2.779891	6.054026
0.93903125	2.786555	6.067467
0.942165527	2.793183	6.080882
0.945299194	2.799774	6.094272
0.948432312	2.806329	6.107638
0.951564819	2.812849	6.12098
0.954696777	2.819333	6.134298
0.957828125	2.825782	6.147594
0.960958801	2.832196	6.160867
0.964088989	2.838575	6.174118
0.967218445	2.84492	6.187347
0.970347351	2.851231	6.200555
0.973475708	2.857507	6.213742
0.976603333	2.86375	6.226909
0.979730347	2.869958	6.240055
0.982856812	2.876134	6.253181
0.985982727	2.882276	6.266288
0.98910791	2.888385	6.279376
0.992232544	2.89446	6.292445
0.995356445	2.900503	6.305495
0.998479797	2.906514	6.318527
1.014837524	2.937483	6.386535
1.021614868	2.950066	6.414599
1.028394165	2.962509	6.442609
1.035175293	2.974813	6.470567
1.041958252	2.986978	6.498477
1.048743286	2.999005	6.52634
1.055530029	3.010894	6.55416
1.062318848	3.022645	6.58194
1.069109497	3.03426	6.609682
1.075901978	3.045738	6.637389
1.082696411	3.057078	6.665065
1.089492676	3.068282	6.692712
1.096290894	3.07935	6.720335
1.103091064	3.090279	6.747934
1.109893066	3.101072	6.775515
1.116697021	3.111727	6.803081
1.123502686	3.122243	6.830635
1.130310425	3.132621	6.858182
1.137119995	3.142859	6.885726
1.143931396	3.152956	6.913272
1.150744873	3.162911	6.940825
1.157560059	3.172722	6.968391
1.164377197	3.182389	6.995977
1.171196289	3.191907	7.023589
1.178017212	3.201274	7.051239
1.184840088	3.210487	7.078941
1.191664795	3.219549	7.106719
1.198491455	3.228477	7.134589
1.205319946	3.237285	7.162559
1.212150269	3.245987	7.190639
1.218982666	3.254599	7.218831
1.225816772	3.263134	7.24714
1.232652954	3.271606	7.275567
1.239490845	3.280028	7.30411
1.246330811	3.288412	7.332772
1.253172485	3.296769	7.361547
1.260016113	3.30511	7.390436
1.266861572	3.313446	7.419433
1.273709106	3.321785	7.448536
1.28055835	3.330137	7.47774
1.287409668	3.338511	7.507041
1.294262695	3.346913	7.536433
1.301117676	3.355351	7.565912
1.307974609	3.363833	7.595472
1.314833374	3.372363	7.625108
1.321694092	3.380948	7.654813
1.328556519	3.389593	7.684583
1.335421021	3.398303	7.714411
1.342287354	3.407081	7.744292
1.349155518	3.415933	7.774219
1.356025635	3.424862	7.804186
1.362897705	3.433871	7.834188
1.369771606	3.442962	7.864219
1.376647339	3.452139	7.894272
1.383525024	3.461404	7.924343
1.390404541	3.470759	7.954425
1.397285889	3.480206	7.984512
1.404169312	3.489746	8.014599
1.411054443	3.49938	8.044681
1.41794165	3.50911	8.074751
1.424830688	3.518937	8.104806
1.431721436	3.528861	8.134837
1.438614258	3.538883	8.164843
1.445508911	3.549003	8.194817
1.452405518	3.559221	8.224753
1.459303955	3.569538	8.254647
1.466204224	3.579954	8.284494
1.473106323	3.590468	8.314291
1.480010498	3.60108	8.34403
1.486916382	3.61179	8.37371
1.493824341	3.622598	8.403324
1.500734131	3.633503	8.432868
1.507645752	3.644504	8.462337
1.514559204	3.655601	8.49173
1.521474609	3.666793	8.521039
1.528391846	3.67808	8.550261
1.535311035	3.689461	8.579392
1.542232056	3.700935	8.608429
1.549155029	3.712501	8.637366
1.556079834	3.724159	8.666201
1.563006592	3.735909	8.694929
1.569935181	3.747748	8.723545
1.576865601	3.759677	8.752047
1.583797974	3.771695	8.780429
1.590732178	3.783801	8.808688
1.597668335	3.795995	8.83682
1.604606323	3.808276	8.86482
1.611546143	3.820644	8.892685
1.618488037	3.833098	8.920409
1.625431641	3.845637	8.947989
1.632377197	3.858263	8.975419
1.639324585	3.870974	9.002695
1.646274048	3.883771	9.029812
1.65322522	3.896655	9.056763
1.660178101	3.909624	9.083542
1.667133179	3.922682	9.110145
1.674090088	3.935828	9.13656
1.681048584	3.949065	9.162782
