Material: main / Pd / Rakic-BB
Optical constants. A. D. Rakić, A. B. Djurišic, J. M. Elazar, and M. L. Majewski. Optical properties of metallic films for vertical-cavity optoelectronic devices, Appl. Opt. 37, 5271-5283 (1998)[Calculation script (Python)]
Comments: Fit of experimental data from several sources to Brendel-Bormann (BB) model
Specs: {"n_absolute": true, "wavelength_vacuum": true}
wavelength (um)	n	k
2.4797e-01	1.1567e+00	2.0317e+00
2.5289e-01	1.1581e+00	2.0430e+00
2.5791e-01	1.1579e+00	2.0572e+00
2.6303e-01	1.1566e+00	2.0743e+00
2.6825e-01	1.1544e+00	2.0944e+00
2.7358e-01	1.1519e+00	2.1175e+00
2.7901e-01	1.1493e+00	2.1434e+00
2.8455e-01	1.1470e+00	2.1721e+00
2.9020e-01	1.1452e+00	2.2035e+00
2.9596e-01	1.1443e+00	2.2373e+00
3.0184e-01	1.1443e+00	2.2733e+00
3.0783e-01	1.1454e+00	2.3114e+00
3.1394e-01	1.1479e+00	2.3513e+00
3.2017e-01	1.1516e+00	2.3929e+00
3.2653e-01	1.1567e+00	2.4358e+00
3.3301e-01	1.1632e+00	2.4800e+00
3.3962e-01	1.1711e+00	2.5253e+00
3.4637e-01	1.1802e+00	2.5715e+00
3.5324e-01	1.1907e+00	2.6185e+00
3.6025e-01	1.2024e+00	2.6661e+00
3.6741e-01	1.2153e+00	2.7144e+00
3.7470e-01	1.2293e+00	2.7631e+00
3.8214e-01	1.2443e+00	2.8123e+00
3.8973e-01	1.2602e+00	2.8618e+00
3.9746e-01	1.2771e+00	2.9117e+00
4.0535e-01	1.2948e+00	2.9620e+00
4.1340e-01	1.3132e+00	3.0125e+00
4.2161e-01	1.3324e+00	3.0633e+00
4.2998e-01	1.3522e+00	3.1145e+00
4.3852e-01	1.3726e+00	3.1659e+00
4.4722e-01	1.3935e+00	3.2176e+00
4.5610e-01	1.4149e+00	3.2696e+00
4.6515e-01	1.4368e+00	3.3219e+00
4.7439e-01	1.4592e+00	3.3746e+00
4.8381e-01	1.4819e+00	3.4276e+00
4.9341e-01	1.5050e+00	3.4810e+00
5.0321e-01	1.5285e+00	3.5348e+00
5.1320e-01	1.5522e+00	3.5891e+00
5.2339e-01	1.5763e+00	3.6437e+00
5.3378e-01	1.6006e+00	3.6988e+00
5.4437e-01	1.6252e+00	3.7544e+00
5.5518e-01	1.6500e+00	3.8105e+00
5.6620e-01	1.6751e+00	3.8671e+00
5.7744e-01	1.7003e+00	3.9243e+00
5.8891e-01	1.7258e+00	3.9820e+00
6.0060e-01	1.7514e+00	4.0404e+00
6.1252e-01	1.7772e+00	4.0993e+00
6.2468e-01	1.8032e+00	4.1589e+00
6.3709e-01	1.8292e+00	4.2192e+00
6.4973e-01	1.8555e+00	4.2802e+00
6.6263e-01	1.8818e+00	4.3419e+00
6.7579e-01	1.9083e+00	4.4044e+00
6.8920e-01	1.9348e+00	4.4676e+00
7.0289e-01	1.9615e+00	4.5316e+00
7.1684e-01	1.9882e+00	4.5965e+00
7.3107e-01	2.0150e+00	4.6623e+00
7.4559e-01	2.0418e+00	4.7289e+00
7.6039e-01	2.0687e+00	4.7965e+00
7.7549e-01	2.0957e+00	4.8651e+00
7.9088e-01	2.1227e+00	4.9347e+00
8.0658e-01	2.1498e+00	5.0053e+00
8.2260e-01	2.1768e+00	5.0770e+00
8.3893e-01	2.2040e+00	5.1498e+00
8.5558e-01	2.2311e+00	5.2238e+00
8.7257e-01	2.2583e+00	5.2990e+00
8.8989e-01	2.2855e+00	5.3755e+00
9.0756e-01	2.3128e+00	5.4532e+00
9.2557e-01	2.3401e+00	5.5323e+00
9.4395e-01	2.3675e+00	5.6127e+00
9.6269e-01	2.3950e+00	5.6946e+00
9.8180e-01	2.4225e+00	5.7780e+00
1.0013e+00	2.4502e+00	5.8628e+00
1.0212e+00	2.4780e+00	5.9492e+00
1.0414e+00	2.5059e+00	6.0373e+00
1.0621e+00	2.5340e+00	6.1269e+00
1.0832e+00	2.5622e+00	6.2183e+00
1.1047e+00	2.5908e+00	6.3114e+00
1.1266e+00	2.6195e+00	6.4063e+00
1.1490e+00	2.6486e+00	6.5030e+00
1.1718e+00	2.6780e+00	6.6015e+00
1.1951e+00	2.7078e+00	6.7019e+00
1.2188e+00	2.7380e+00	6.8042e+00
1.2430e+00	2.7687e+00	6.9084e+00
1.2677e+00	2.8000e+00	7.0146e+00
1.2929e+00	2.8318e+00	7.1228e+00
1.3185e+00	2.8643e+00	7.2330e+00
1.3447e+00	2.8975e+00	7.3451e+00
1.3714e+00	2.9314e+00	7.4592e+00
1.3986e+00	2.9662e+00	7.5752e+00
1.4264e+00	3.0019e+00	7.6932e+00
1.4547e+00	3.0386e+00	7.8130e+00
1.4836e+00	3.0762e+00	7.9348e+00
1.5130e+00	3.1150e+00	8.0582e+00
1.5431e+00	3.1548e+00	8.1835e+00
1.5737e+00	3.1958e+00	8.3103e+00
1.6050e+00	3.2380e+00	8.4387e+00
1.6368e+00	3.2814e+00	8.5684e+00
1.6693e+00	3.3260e+00	8.6995e+00
1.7025e+00	3.3718e+00	8.8317e+00
1.7363e+00	3.4187e+00	8.9649e+00
1.7707e+00	3.4667e+00	9.0989e+00
1.8059e+00	3.5157e+00	9.2337e+00
1.8417e+00	3.5655e+00	9.3689e+00
1.8783e+00	3.6160e+00	9.5044e+00
1.9156e+00	3.6670e+00	9.6401e+00
1.9536e+00	3.7182e+00	9.7759e+00
1.9924e+00	3.7693e+00	9.9115e+00
2.0319e+00	3.8201e+00	1.0047e+01
2.0723e+00	3.8701e+00	1.0182e+01
2.1134e+00	3.9190e+00	1.0317e+01
2.1554e+00	3.9663e+00	1.0452e+01
2.1982e+00	4.0115e+00	1.0587e+01
2.2418e+00	4.0544e+00	1.0721e+01
2.2863e+00	4.0943e+00	1.0856e+01
2.3317e+00	4.1308e+00	1.0992e+01
2.3780e+00	4.1636e+00	1.1128e+01
2.4252e+00	4.1923e+00	1.1266e+01
2.4734e+00	4.2164e+00	1.1406e+01
2.5225e+00	4.2359e+00	1.1548e+01
2.5725e+00	4.2503e+00	1.1694e+01
2.6236e+00	4.2597e+00	1.1843e+01
2.6757e+00	4.2640e+00	1.1996e+01
2.7288e+00	4.2631e+00	1.2154e+01
2.7830e+00	4.2571e+00	1.2317e+01
2.8383e+00	4.2463e+00	1.2487e+01
2.8946e+00	4.2309e+00	1.2664e+01
2.9521e+00	4.2110e+00	1.2847e+01
3.0107e+00	4.1871e+00	1.3039e+01
3.0704e+00	4.1596e+00	1.3238e+01
3.1314e+00	4.1287e+00	1.3446e+01
3.1936e+00	4.0950e+00	1.3663e+01
3.2570e+00	4.0587e+00	1.3889e+01
3.3216e+00	4.0204e+00	1.4124e+01
3.3876e+00	3.9805e+00	1.4369e+01
3.4548e+00	3.9393e+00	1.4623e+01
3.5234e+00	3.8972e+00	1.4887e+01
3.5934e+00	3.8545e+00	1.5161e+01
3.6647e+00	3.8115e+00	1.5444e+01
3.7375e+00	3.7686e+00	1.5737e+01
3.8117e+00	3.7260e+00	1.6040e+01
3.8873e+00	3.6839e+00	1.6352e+01
3.9645e+00	3.6425e+00	1.6674e+01
4.0432e+00	3.6020e+00	1.7006e+01
4.1235e+00	3.5626e+00	1.7347e+01
4.2053e+00	3.5243e+00	1.7698e+01
4.2888e+00	3.4873e+00	1.8058e+01
4.3740e+00	3.4517e+00	1.8428e+01
4.4608e+00	3.4175e+00	1.8807e+01
4.5494e+00	3.3848e+00	1.9196e+01
4.6397e+00	3.3537e+00	1.9594e+01
4.7318e+00	3.3242e+00	2.0002e+01
4.8257e+00	3.2962e+00	2.0419e+01
4.9216e+00	3.2699e+00	2.0846e+01
5.0193e+00	3.2452e+00	2.1282e+01
5.1189e+00	3.2222e+00	2.1728e+01
5.2205e+00	3.2009e+00	2.2184e+01
5.3242e+00	3.1813e+00	2.2650e+01
5.4299e+00	3.1633e+00	2.3126e+01
5.5377e+00	3.1470e+00	2.3612e+01
5.6476e+00	3.1324e+00	2.4108e+01
5.7597e+00	3.1195e+00	2.4615e+01
5.8741e+00	3.1083e+00	2.5132e+01
5.9907e+00	3.0987e+00	2.5660e+01
6.1096e+00	3.0909e+00	2.6198e+01
6.2309e+00	3.0848e+00	2.6748e+01
6.3546e+00	3.0804e+00	2.7308e+01
6.4808e+00	3.0778e+00	2.7880e+01
6.6094e+00	3.0769e+00	2.8463e+01
6.7407e+00	3.0778e+00	2.9058e+01
6.8745e+00	3.0804e+00	2.9665e+01
7.0110e+00	3.0849e+00	3.0284e+01
7.1502e+00	3.0911e+00	3.0916e+01
7.2921e+00	3.0993e+00	3.1559e+01
7.4369e+00	3.1093e+00	3.2216e+01
7.5845e+00	3.1212e+00	3.2885e+01
7.7351e+00	3.1351e+00	3.3568e+01
7.8887e+00	3.1510e+00	3.4264e+01
8.0453e+00	3.1689e+00	3.4974e+01
8.2050e+00	3.1889e+00	3.5697e+01
8.3679e+00	3.2110e+00	3.6435e+01
8.5340e+00	3.2353e+00	3.7187e+01
8.7034e+00	3.2618e+00	3.7955e+01
8.8762e+00	3.2906e+00	3.8737e+01
9.0524e+00	3.3217e+00	3.9534e+01
9.2322e+00	3.3553e+00	4.0347e+01
9.4154e+00	3.3914e+00	4.1176e+01
9.6024e+00	3.4300e+00	4.2020e+01
9.7930e+00	3.4712e+00	4.2882e+01
9.9874e+00	3.5151e+00	4.3760e+01
1.0186e+01	3.5619e+00	4.4655e+01
1.0388e+01	3.6115e+00	4.5568e+01
1.0594e+01	3.6641e+00	4.6498e+01
1.0804e+01	3.7198e+00	4.7447e+01
1.1019e+01	3.7786e+00	4.8414e+01
1.1238e+01	3.8408e+00	4.9400e+01
1.1461e+01	3.9063e+00	5.0404e+01
1.1688e+01	3.9754e+00	5.1429e+01
1.1920e+01	4.0480e+00	5.2473e+01
1.2157e+01	4.1245e+00	5.3537e+01
1.2398e+01	4.2048e+00	5.4622e+01
