Material: main / Pd / Rakic-LD
Optical constants. A. D. Rakić, A. B. Djurišic, J. M. Elazar, and M. L. Majewski. Optical properties of metallic films for vertical-cavity optoelectronic devices, Appl. Opt. 37, 5271-5283 (1998)[Calculation script (Python)]
Comments: Fit of experimental data from several sources to Lorentz-Drude (LD) model
Specs: {"n_absolute": true, "wavelength_vacuum": true}
wavelength (um)	n	k
2.4797e-01	1.1452e+00	2.0294e+00
2.5090e-01	1.1474e+00	2.0356e+00
2.5386e-01	1.1488e+00	2.0429e+00
2.5686e-01	1.1496e+00	2.0513e+00
2.5990e-01	1.1497e+00	2.0608e+00
2.6297e-01	1.1494e+00	2.0715e+00
2.6608e-01	1.1488e+00	2.0833e+00
2.6922e-01	1.1480e+00	2.0963e+00
2.7240e-01	1.1471e+00	2.1104e+00
2.7562e-01	1.1462e+00	2.1256e+00
2.7888e-01	1.1454e+00	2.1418e+00
2.8217e-01	1.1447e+00	2.1590e+00
2.8551e-01	1.1442e+00	2.1772e+00
2.8888e-01	1.1439e+00	2.1962e+00
2.9230e-01	1.1440e+00	2.2162e+00
2.9575e-01	1.1444e+00	2.2369e+00
2.9925e-01	1.1452e+00	2.2583e+00
3.0278e-01	1.1464e+00	2.2804e+00
3.0636e-01	1.1480e+00	2.3032e+00
3.0998e-01	1.1500e+00	2.3266e+00
3.1364e-01	1.1524e+00	2.3505e+00
3.1735e-01	1.1553e+00	2.3749e+00
3.2110e-01	1.1587e+00	2.3998e+00
3.2489e-01	1.1624e+00	2.4251e+00
3.2873e-01	1.1666e+00	2.4509e+00
3.3262e-01	1.1713e+00	2.4770e+00
3.3655e-01	1.1764e+00	2.5034e+00
3.4053e-01	1.1818e+00	2.5302e+00
3.4455e-01	1.1877e+00	2.5573e+00
3.4862e-01	1.1940e+00	2.5846e+00
3.5274e-01	1.2007e+00	2.6123e+00
3.5691e-01	1.2078e+00	2.6401e+00
3.6113e-01	1.2152e+00	2.6682e+00
3.6540e-01	1.2230e+00	2.6965e+00
3.6971e-01	1.2311e+00	2.7250e+00
3.7408e-01	1.2395e+00	2.7536e+00
3.7850e-01	1.2483e+00	2.7825e+00
3.8298e-01	1.2574e+00	2.8115e+00
3.8750e-01	1.2668e+00	2.8407e+00
3.9208e-01	1.2765e+00	2.8701e+00
3.9671e-01	1.2864e+00	2.8996e+00
4.0140e-01	1.2967e+00	2.9292e+00
4.0614e-01	1.3072e+00	2.9590e+00
4.1094e-01	1.3179e+00	2.9890e+00
4.1580e-01	1.3289e+00	3.0190e+00
4.2071e-01	1.3401e+00	3.0492e+00
4.2569e-01	1.3516e+00	3.0796e+00
4.3072e-01	1.3632e+00	3.1100e+00
4.3581e-01	1.3751e+00	3.1406e+00
4.4096e-01	1.3872e+00	3.1714e+00
4.4617e-01	1.3994e+00	3.2022e+00
4.5144e-01	1.4119e+00	3.2332e+00
4.5677e-01	1.4245e+00	3.2644e+00
4.6217e-01	1.4373e+00	3.2956e+00
4.6763e-01	1.4503e+00	3.3270e+00
4.7316e-01	1.4634e+00	3.3586e+00
4.7875e-01	1.4767e+00	3.3902e+00
4.8441e-01	1.4901e+00	3.4220e+00
4.9013e-01	1.5037e+00	3.4540e+00
4.9592e-01	1.5174e+00	3.4861e+00
5.0178e-01	1.5312e+00	3.5183e+00
5.0771e-01	1.5452e+00	3.5507e+00
5.1371e-01	1.5593e+00	3.5833e+00
5.1978e-01	1.5735e+00	3.6160e+00
5.2593e-01	1.5877e+00	3.6489e+00
5.3214e-01	1.6021e+00	3.6819e+00
5.3843e-01	1.6166e+00	3.7151e+00
5.4479e-01	1.6312e+00	3.7485e+00
5.5123e-01	1.6459e+00	3.7821e+00
5.5774e-01	1.6607e+00	3.8158e+00
5.6434e-01	1.6755e+00	3.8498e+00
5.7100e-01	1.6904e+00	3.8839e+00
5.7775e-01	1.7054e+00	3.9182e+00
5.8458e-01	1.7205e+00	3.9527e+00
5.9149e-01	1.7356e+00	3.9875e+00
5.9848e-01	1.7508e+00	4.0224e+00
6.0555e-01	1.7660e+00	4.0576e+00
6.1270e-01	1.7813e+00	4.0930e+00
6.1995e-01	1.7967e+00	4.1286e+00
6.2727e-01	1.8120e+00	4.1644e+00
6.3468e-01	1.8275e+00	4.2005e+00
6.4218e-01	1.8430e+00	4.2369e+00
6.4977e-01	1.8585e+00	4.2734e+00
6.5745e-01	1.8740e+00	4.3103e+00
6.6522e-01	1.8896e+00	4.3474e+00
6.7308e-01	1.9052e+00	4.3848e+00
6.8103e-01	1.9209e+00	4.4225e+00
6.8908e-01	1.9365e+00	4.4605e+00
6.9723e-01	1.9522e+00	4.4987e+00
7.0546e-01	1.9679e+00	4.5373e+00
7.1380e-01	1.9837e+00	4.5761e+00
7.2224e-01	1.9994e+00	4.6153e+00
7.3077e-01	2.0152e+00	4.6548e+00
7.3941e-01	2.0310e+00	4.6947e+00
7.4814e-01	2.0468e+00	4.7349e+00
7.5699e-01	2.0626e+00	4.7754e+00
7.6593e-01	2.0784e+00	4.8163e+00
7.7498e-01	2.0942e+00	4.8576e+00
7.8414e-01	2.1101e+00	4.8992e+00
7.9341e-01	2.1260e+00	4.9412e+00
8.0278e-01	2.1418e+00	4.9836e+00
8.1227e-01	2.1577e+00	5.0264e+00
8.2187e-01	2.1736e+00	5.0696e+00
8.3158e-01	2.1895e+00	5.1133e+00
8.4141e-01	2.2055e+00	5.1573e+00
8.5135e-01	2.2214e+00	5.2018e+00
8.6141e-01	2.2374e+00	5.2468e+00
8.7159e-01	2.2534e+00	5.2921e+00
8.8189e-01	2.2694e+00	5.3380e+00
8.9231e-01	2.2854e+00	5.3843e+00
9.0285e-01	2.3014e+00	5.4311e+00
9.1352e-01	2.3175e+00	5.4784e+00
9.2432e-01	2.3336e+00	5.5262e+00
9.3524e-01	2.3498e+00	5.5745e+00
9.4629e-01	2.3660e+00	5.6233e+00
9.5748e-01	2.3822e+00	5.6727e+00
9.6879e-01	2.3984e+00	5.7226e+00
9.8024e-01	2.4148e+00	5.7730e+00
9.9182e-01	2.4311e+00	5.8240e+00
1.0035e+00	2.4476e+00	5.8755e+00
1.0154e+00	2.4641e+00	5.9276e+00
1.0274e+00	2.4806e+00	5.9803e+00
1.0395e+00	2.4973e+00	6.0336e+00
1.0518e+00	2.5140e+00	6.0875e+00
1.0643e+00	2.5308e+00	6.1420e+00
1.0768e+00	2.5477e+00	6.1971e+00
1.0896e+00	2.5648e+00	6.2528e+00
1.1024e+00	2.5819e+00	6.3091e+00
1.1155e+00	2.5992e+00	6.3661e+00
1.1286e+00	2.6165e+00	6.4237e+00
1.1420e+00	2.6341e+00	6.4820e+00
1.1555e+00	2.6517e+00	6.5409e+00
1.1691e+00	2.6696e+00	6.6005e+00
1.1829e+00	2.6876e+00	6.6607e+00
1.1969e+00	2.7057e+00	6.7216e+00
1.2111e+00	2.7241e+00	6.7832e+00
1.2254e+00	2.7427e+00	6.8454e+00
1.2399e+00	2.7614e+00	6.9083e+00
1.2545e+00	2.7804e+00	6.9719e+00
1.2693e+00	2.7996e+00	7.0362e+00
1.2843e+00	2.8191e+00	7.1011e+00
1.2995e+00	2.8388e+00	7.1668e+00
1.3149e+00	2.8588e+00	7.2331e+00
1.3304e+00	2.8790e+00	7.3001e+00
1.3461e+00	2.8995e+00	7.3677e+00
1.3620e+00	2.9204e+00	7.4360e+00
1.3781e+00	2.9415e+00	7.5050e+00
1.3944e+00	2.9630e+00	7.5746e+00
1.4109e+00	2.9848e+00	7.6449e+00
1.4276e+00	3.0069e+00	7.7158e+00
1.4444e+00	3.0294e+00	7.7874e+00
1.4615e+00	3.0522e+00	7.8595e+00
1.4788e+00	3.0754e+00	7.9323e+00
1.4962e+00	3.0990e+00	8.0056e+00
1.5139e+00	3.1230e+00	8.0796e+00
1.5318e+00	3.1473e+00	8.1540e+00
1.5499e+00	3.1720e+00	8.2291e+00
1.5682e+00	3.1972e+00	8.3046e+00
1.5868e+00	3.2227e+00	8.3806e+00
1.6055e+00	3.2486e+00	8.4572e+00
1.6245e+00	3.2749e+00	8.5341e+00
1.6437e+00	3.3016e+00	8.6115e+00
1.6631e+00	3.3287e+00	8.6894e+00
1.6828e+00	3.3561e+00	8.7675e+00
1.7027e+00	3.3839e+00	8.8461e+00
1.7228e+00	3.4120e+00	8.9250e+00
1.7431e+00	3.4405e+00	9.0041e+00
1.7637e+00	3.4693e+00	9.0836e+00
1.7846e+00	3.4983e+00	9.1633e+00
1.8057e+00	3.5277e+00	9.2431e+00
1.8270e+00	3.5572e+00	9.3232e+00
1.8486e+00	3.5869e+00	9.4035e+00
1.8704e+00	3.6168e+00	9.4838e+00
1.8925e+00	3.6468e+00	9.5643e+00
1.9149e+00	3.6768e+00	9.6448e+00
1.9375e+00	3.7069e+00	9.7254e+00
1.9604e+00	3.7369e+00	9.8061e+00
1.9836e+00	3.7669e+00	9.8868e+00
2.0070e+00	3.7966e+00	9.9675e+00
2.0307e+00	3.8261e+00	1.0048e+01
2.0547e+00	3.8554e+00	1.0129e+01
2.0790e+00	3.8842e+00	1.0210e+01
2.1036e+00	3.9126e+00	1.0290e+01
2.1285e+00	3.9405e+00	1.0371e+01
2.1536e+00	3.9678e+00	1.0452e+01
2.1791e+00	3.9944e+00	1.0532e+01
2.2048e+00	4.0202e+00	1.0613e+01
2.2309e+00	4.0451e+00	1.0694e+01
2.2572e+00	4.0691e+00	1.0775e+01
2.2839e+00	4.0921e+00	1.0857e+01
2.3109e+00	4.1140e+00	1.0938e+01
2.3382e+00	4.1346e+00	1.1020e+01
2.3658e+00	4.1540e+00	1.1103e+01
2.3938e+00	4.1720e+00	1.1186e+01
2.4221e+00	4.1887e+00	1.1269e+01
2.4507e+00	4.2038e+00	1.1353e+01
2.4797e+00	4.2174e+00	1.1438e+01
2.5090e+00	4.2293e+00	1.1524e+01
2.5386e+00	4.2396e+00	1.1610e+01
2.5686e+00	4.2483e+00	1.1698e+01
2.5990e+00	4.2551e+00	1.1787e+01
2.6297e+00	4.2603e+00	1.1878e+01
2.6607e+00	4.2636e+00	1.1969e+01
2.6922e+00	4.2652e+00	1.2063e+01
2.7240e+00	4.2650e+00	1.2158e+01
2.7562e+00	4.2630e+00	1.2255e+01
2.7888e+00	4.2593e+00	1.2354e+01
2.8217e+00	4.2538e+00	1.2455e+01
2.8551e+00	4.2466e+00	1.2558e+01
2.8888e+00	4.2377e+00	1.2664e+01
2.9229e+00	4.2273e+00	1.2772e+01
2.9575e+00	4.2152e+00	1.2883e+01
2.9924e+00	4.2017e+00	1.2996e+01
3.0278e+00	4.1868e+00	1.3112e+01
3.0636e+00	4.1704e+00	1.3231e+01
3.0998e+00	4.1528e+00	1.3353e+01
3.1364e+00	4.1340e+00	1.3478e+01
3.1735e+00	4.1141e+00	1.3607e+01
3.2110e+00	4.0931e+00	1.3738e+01
3.2489e+00	4.0712e+00	1.3872e+01
3.2873e+00	4.0484e+00	1.4010e+01
3.3261e+00	4.0248e+00	1.4152e+01
3.3654e+00	4.0005e+00	1.4296e+01
3.4052e+00	3.9756e+00	1.4444e+01
3.4455e+00	3.9502e+00	1.4596e+01
3.4862e+00	3.9244e+00	1.4751e+01
3.5274e+00	3.8982e+00	1.4909e+01
3.5691e+00	3.8717e+00	1.5071e+01
3.6112e+00	3.8450e+00	1.5237e+01
3.6539e+00	3.8181e+00	1.5406e+01
3.6971e+00	3.7912e+00	1.5579e+01
3.7408e+00	3.7643e+00	1.5755e+01
3.7850e+00	3.7375e+00	1.5935e+01
3.8297e+00	3.7107e+00	1.6118e+01
3.8750e+00	3.6842e+00	1.6305e+01
3.9207e+00	3.6578e+00	1.6496e+01
3.9671e+00	3.6317e+00	1.6690e+01
4.0140e+00	3.6060e+00	1.6887e+01
4.0614e+00	3.5806e+00	1.7088e+01
4.1094e+00	3.5556e+00	1.7293e+01
4.1579e+00	3.5310e+00	1.7501e+01
4.2071e+00	3.5068e+00	1.7712e+01
4.2568e+00	3.4832e+00	1.7927e+01
4.3071e+00	3.4600e+00	1.8145e+01
4.3580e+00	3.4374e+00	1.8367e+01
4.4095e+00	3.4154e+00	1.8593e+01
4.4616e+00	3.3939e+00	1.8821e+01
4.5143e+00	3.3730e+00	1.9054e+01
4.5677e+00	3.3527e+00	1.9289e+01
4.6217e+00	3.3330e+00	1.9528e+01
4.6763e+00	3.3139e+00	1.9771e+01
4.7315e+00	3.2954e+00	2.0017e+01
4.7874e+00	3.2776e+00	2.0267e+01
4.8440e+00	3.2605e+00	2.0519e+01
4.9013e+00	3.2439e+00	2.0776e+01
4.9592e+00	3.2281e+00	2.1036e+01
5.0178e+00	3.2129e+00	2.1299e+01
5.0771e+00	3.1983e+00	2.1566e+01
5.1371e+00	3.1844e+00	2.1836e+01
5.1978e+00	3.1712e+00	2.2110e+01
5.2592e+00	3.1586e+00	2.2387e+01
5.3213e+00	3.1467e+00	2.2668e+01
5.3842e+00	3.1354e+00	2.2952e+01
5.4479e+00	3.1248e+00	2.3240e+01
5.5122e+00	3.1149e+00	2.3532e+01
5.5774e+00	3.1056e+00	2.3827e+01
5.6433e+00	3.0970e+00	2.4126e+01
5.7100e+00	3.0890e+00	2.4428e+01
5.7774e+00	3.0816e+00	2.4734e+01
5.8457e+00	3.0750e+00	2.5044e+01
5.9148e+00	3.0689e+00	2.5358e+01
5.9847e+00	3.0635e+00	2.5675e+01
6.0554e+00	3.0588e+00	2.5996e+01
6.1270e+00	3.0547e+00	2.6322e+01
6.1994e+00	3.0512e+00	2.6650e+01
6.2726e+00	3.0483e+00	2.6983e+01
6.3468e+00	3.0461e+00	2.7320e+01
6.4218e+00	3.0446e+00	2.7661e+01
6.4976e+00	3.0437e+00	2.8005e+01
6.5744e+00	3.0434e+00	2.8354e+01
6.6521e+00	3.0437e+00	2.8707e+01
6.7307e+00	3.0447e+00	2.9064e+01
6.8103e+00	3.0463e+00	2.9425e+01
6.8907e+00	3.0486e+00	2.9790e+01
6.9722e+00	3.0514e+00	3.0160e+01
7.0546e+00	3.0550e+00	3.0534e+01
7.1379e+00	3.0591e+00	3.0912e+01
7.2223e+00	3.0639e+00	3.1295e+01
7.3076e+00	3.0694e+00	3.1682e+01
7.3940e+00	3.0755e+00	3.2073e+01
7.4813e+00	3.0822e+00	3.2469e+01
7.5698e+00	3.0896e+00	3.2870e+01
7.6592e+00	3.0977e+00	3.3275e+01
7.7497e+00	3.1064e+00	3.3685e+01
7.8413e+00	3.1158e+00	3.4100e+01
7.9340e+00	3.1259e+00	3.4519e+01
8.0277e+00	3.1366e+00	3.4943e+01
8.1226e+00	3.1480e+00	3.5372e+01
8.2186e+00	3.1601e+00	3.5806e+01
8.3157e+00	3.1729e+00	3.6246e+01
8.4139e+00	3.1864e+00	3.6690e+01
8.5134e+00	3.2006e+00	3.7139e+01
8.6140e+00	3.2155e+00	3.7593e+01
8.7158e+00	3.2311e+00	3.8053e+01
8.8188e+00	3.2475e+00	3.8518e+01
8.9230e+00	3.2646e+00	3.8988e+01
9.0284e+00	3.2824e+00	3.9464e+01
9.1351e+00	3.3010e+00	3.9945e+01
9.2431e+00	3.3204e+00	4.0432e+01
9.3523e+00	3.3405e+00	4.0924e+01
9.4628e+00	3.3615e+00	4.1422e+01
9.5746e+00	3.3832e+00	4.1926e+01
9.6878e+00	3.4058e+00	4.2435e+01
9.8023e+00	3.4292e+00	4.2951e+01
9.9181e+00	3.4534e+00	4.3472e+01
1.0035e+01	3.4785e+00	4.3999e+01
1.0154e+01	3.5044e+00	4.4533e+01
1.0274e+01	3.5313e+00	4.5072e+01
1.0395e+01	3.5590e+00	4.5618e+01
1.0518e+01	3.5876e+00	4.6170e+01
1.0642e+01	3.6172e+00	4.6729e+01
1.0768e+01	3.6477e+00	4.7293e+01
1.0895e+01	3.6792e+00	4.7865e+01
1.1024e+01	3.7116e+00	4.8443e+01
1.1154e+01	3.7451e+00	4.9027e+01
1.1286e+01	3.7796e+00	4.9619e+01
1.1420e+01	3.8151e+00	5.0217e+01
1.1555e+01	3.8517e+00	5.0822e+01
1.1691e+01	3.8893e+00	5.1434e+01
1.1829e+01	3.9280e+00	5.2053e+01
1.1969e+01	3.9679e+00	5.2679e+01
1.2111e+01	4.0089e+00	5.3313e+01
1.2254e+01	4.0511e+00	5.3954e+01
1.2398e+01	4.0945e+00	5.4602e+01
