Material: main / Pd / Windt
Optical constants. D. L. Windt, W. C. Cash, M. Scott, P. Arendt, B. Newnam, R. F. Fisher, A. B. Swartzlander. Optical constants for thin films of Ti, Zr, Nb, Mo, Ru, Rh, Pd, Ag, Hf, Ta, W, Re, Ir, Os, Pt, and Au from 24 Å to 1216 Å, Appl. Opt. 27, 246-278 (1988)
wavelength (um)	n	k
0.00236	0.99619	0.00378
0.00316	0.99757	0.00477
0.00447	0.99302	0.00208
0.00676	0.9818	0.00311
0.01140	0.9378	0.000391
0.01355	0.871	0.0250
0.01714	0.835	0.148
0.02430	0.879	0.244
0.02563	0.851	0.224
0.03038	0.821	0.247
0.03270	0.799	0.310
0.03568	0.758	0.307
0.03793	0.763	0.420
0.04059	0.794	0.451
0.04478	0.780	0.495
0.04607	0.765	0.547
0.04895	0.809	0.625
0.05391	0.853	0.763
0.05843	0.913	0.850
0.06163	0.990	0.790
0.06714	1.03	0.766
0.07185	1.06	0.778
0.07359	1.07	0.824
0.07437	0.936	0.744
0.08345	1.24	0.877
0.08780	1.23	0.815
0.09198	1.36	0.796
0.09321	1.30	0.749
0.09888	1.28	0.733
0.10258	1.46	0.708
0.10482	1.38	0.691
0.10667	1.30	0.666
0.10857	1.62	0.533
0.11350	1.40	0.605
0.12007	1.36	0.560
0.12157	1.27	0.592
