Material: main / SrF2 / Rodriguez-de Marcos
Optical constants. L. Rodríguez-de Marcos, J. I. Larruquert, J. A. Aznárez, M. Fernández-Perea, R. Soufli, J. A. Méndez, S. L. Baker, E. M. Gullikson. Optical constants of SrF2 thin films in the 25–780-eV spectral range, J. Appl. Phys. 113, 143501 (2013) (Numerical data kindly provided by Juan Larruquert)
Comments: Density: 3.98 g/cm3. Film deposited at room temperature.
Specs: {"n_absolute": true, "wavelength_vacuum": true}
wavelength (um)	n	k
0.001582488	0.999010769	0.000366945
0.001649901	0.998961935	0.000454951
0.001720186	0.998915108	0.000522073
0.001793465	0.99898189	0.000734964
0.001869866	0.998863866	0.000390572
0.001949522	0.998703757	0.000450876
0.00203257	0.998564441	0.000511139
0.002119157	0.998439115	0.00059595
0.002209432	0.998314315	0.000661477
0.002303552	0.99819093	0.000729042
0.002401683	0.998033535	0.00081927
0.002503993	0.997885163	0.000912298
0.002610662	0.997714567	0.001032238
0.002721875	0.997575965	0.001172096
0.002837825	0.997417974	0.001311034
0.002958715	0.997241714	0.001451914
0.003084755	0.997078898	0.001648692
0.003216164	0.996914484	0.001785918
0.003353171	0.996749256	0.002036983
0.003496015	0.996600504	0.002179899
0.003644943	0.996445686	0.002370007
0.003800216	0.996216532	0.002526257
0.003962103	0.996008933	0.002821894
0.004130887	0.995831061	0.003117412
0.004306861	0.995650272	0.003314011
0.004490331	0.995614812	0.003537316
0.004681617	0.995622345	0.003534335
0.004881051	0.995130148	0.003574179
0.005088982	0.994699471	0.004005351
0.00530577	0.994537992	0.00438457
0.005531793	0.994361814	0.004626454
0.005767445	0.994134794	0.004721165
0.006013135	0.993697273	0.004622553
0.006269291	0.993048577	0.005100573
0.00653636	0.992999454	0.005726395
0.006814806	0.992817692	0.00532574
0.007105113	0.992393396	0.005303839
0.007407788	0.991095167	0.004767418
0.007723356	0.990136532	0.005875921
0.008052367	0.989714485	0.00522463
0.008395394	0.98841867	0.005361626
0.008753033	0.987014755	0.005274272
0.009125908	0.985278657	0.005547989
0.009514667	0.983515301	0.006324093
0.009919987	0.981761571	0.00694797
0.010342574	0.97982756	0.007907397
0.010783163	0.977924195	0.009046656
0.01124252	0.975926377	0.010152429
0.011721446	0.973975669	0.011668338
0.012220773	0.972165974	0.013156694
0.012741372	0.970092603	0.013958424
0.013284149	0.96714144	0.01537928
0.013850047	0.964208803	0.017746434
0.014440052	0.961823678	0.020014432
0.015055191	0.95915852	0.022571739
0.015696535	0.956874086	0.024671721
0.016365199	0.953343416	0.026532955
0.017062349	0.949902451	0.029881397
0.017789196	0.946498614	0.032283627
0.018547007	0.94186148	0.03561502
0.019337101	0.938243435	0.041058835
0.020160851	0.935867777	0.044648893
0.021019694	0.931886099	0.045985832
0.021915122	0.92529324	0.047988694
0.022848696	0.917144679	0.052348951
0.023822039	0.908795565	0.057587557
0.024836846	0.898372326	0.064580294
0.025894883	0.88837796	0.075684861
0.026997993	0.880782327	0.087467432
0.028148094	0.868214937	0.094340317
0.029347189	0.853689339	0.119999077
0.030597364	0.858341148	0.147386155
0.031900797	0.861255501	0.147308446
0.033259755	0.843672127	0.142183376
0.034676604	0.809423434	0.161084746
0.03615381	0.775765057	0.193226503
0.037693945	0.732535554	0.257246565
0.039299688	0.7134217	0.365339392
0.040973836	0.768072046	0.550158363
0.042719301	0.955827145	0.578732721
0.044539122	1.050916101	0.544969309
0.046436466	1.142953647	0.422825636
0.048414637	1.102052784	0.36675805
0.050477076	1.063772104	0.360386186
0.052627375	1.083202152	0.443359065
0.054869275	1.128562257	0.407515905
0.057206679	1.14317335	0.37574073
0.059643655	1.122497083	0.341436407
0.062184446	1.086235893	0.352273413
0.064833472	1.096854927	0.390685813
0.067595346	1.082211262	0.383917678
0.070474874	1.032600665	0.412485412
0.073477069	1.053886766	0.550867833
0.076607156	1.115117212	0.621799948
0.079870583	1.220515427	0.59156307
0.08327303	1.203374528	0.581412125
0.08682042	1.205308571	0.744936045
0.090518927	1.503963419	0.870551621
0.094374989	1.567130805	0.496856578
0.098395317	1.472069695	0.525331481
0.102586909	1.55095365	0.616769291
0.10695706	1.618027043	0.466469831
0.111513378	1.530684162	0.482204129
0.116263793	1.71496719	0.651895713
0.121216573	1.902916088	0.501722901
0.126380339	1.910271504	0.257850337
0.131764079	1.834569796	0.157197134
0.137377164	1.772226252	0.110464536
0.143229363	1.724782	0.084791198
0.149330863	1.688271341	0.068806945
0.155692284	1.659439167	0.057918718
0.162324698	1.636130342	0.050028492
0.16923965	1.616925589	0.044028473
0.176449176	1.600844727	0.03929494
0.183965823	1.587204345	0.035457716
0.191802676	1.575511878	0.032272559
0.199973376	1.565398256	0.029579072
0.208492143	1.556585434	0.027268416
0.217373805	1.54885791	0.025258627
0.226633821	1.542044647	0.023491782
0.23628831	1.5360099	0.021924626
0.246354075	1.530643103	0.020522544
0.256848637	1.525853159	0.019259607
0.267790262	1.52156512	0.018115119
0.279197995	1.517715768	0.017071997
0.291091692	1.514251687	0.016116903
0.303492054	1.511127759	0.015238608
0.316420665	1.508304975	0.014427712
0.329900029	1.505749804	0.013676638
0.343953607	1.503433285	0.01297872
0.358605861	1.50133	0.01232835
0.373882293	1.499417785	0.011720889
0.389809494	1.497677176	0.011152105
0.406415186	1.496090894	0.010618441
0.423728272	1.49464371	0.010116861
0.441778887	1.493322067	0.009644554
0.460598449	1.492113834	0.009199145
0.480219715	1.491008221	0.008778531
0.500676838	1.489995517	0.00838078
0.522005424	1.489066981	0.008004228
0.544242597	1.488214774	0.007647362
0.567427062	1.487431781	0.007308803
0.591599175	1.486711561	0.006987341
0.616801007	1.486048292	0.006681852
0.643076425	1.485436653	0.006391318
0.670471163	1.484871803	0.006114829
0.699032903	1.484349324	0.00585153
0.728811359	1.483865157	0.005600644
0.759858363	1.483415582	0.005361471
0.792227953	1.482997177	0.005133342
0.825976473	1.482606769	0.004915652
0.861162662	1.482241432	0.004707844
0.897847766	1.481898438	0.004509389
0.936095637	1.481575243	0.004319803
0.975972848	1.481269466	0.004138636
1.017548809	1.480978862	0.00396546
1.060895885	1.48070131	0.003799882
1.106089526	1.480434793	0.003641531
1.153208393	1.480177382	0.003490057
1.2023345	1.479927219	0.003345136
1.253553356	1.479682507	0.003206458
1.306954109	1.479441491	0.003073732
1.362629708	1.479202447	0.002946687
1.42067706	1.47896367	0.002825062
1.4811972	1.478723459	0.002708615
1.544295469	1.478480106	0.002597115
1.610081692	1.478231882	0.002490342
1.678670377	1.477977024	0.00238809
1.750180905	1.477713725	0.002290163
1.824737746	1.477440117	0.002196375
1.902470672	1.477154258	0.00210655
1.983514982	1.476854119	0.002020521
2.06801174	1.47653757	0.001938129
2.156108018	1.476202358	0.001859224
2.247957154	1.4758461	0.001783665
2.343719017	1.475466254	0.001711316
2.443560289	1.47506011	0.001642051
2.547654749	1.474624763	0.001575748
2.656183582	1.474157091	0.001512295
2.76933569	1.473653736	0.001451585
2.887308021	1.47311107	0.001393517
3.010305916	1.472525173	0.001337998
3.138543459	1.471891799	0.001284942
3.272243859	1.471206342	0.001234266
3.41163983	1.470463797	0.001185897
3.556974001	1.46965872	0.001139768
3.708499335	1.468785185	0.001095817
3.866479573	1.467836724	0.001053992
4.031189692	1.466806285	0.001014246
4.20291638	1.465686154	0.000976541
4.38195854	1.464467898	0.000940848
4.568627808	1.46314228	0.000907146
4.763249094	1.461699173	0.000875421
4.966161151	1.460127464	0.000845679
5.177717161	1.458414945	0.000817927
5.398285352	1.456548178	0.000792188
5.62824964	1.454512371	0.000768509
5.868010292	1.452291206	0.000746938
6.11798463	1.44986665	0.000727553
6.378607751	1.447218769	0.000710454
6.650333288	1.444325461	0.000695754
6.933634199	1.441162184	0.000683607
7.229003588	1.43770166	0.000674199
7.536955568	1.433913457	0.000667738
7.858026149	1.429763573	0.000664505
8.192774179	1.425213933	0.00066481
8.541782309	1.420221733	0.000669021
8.905658013	1.41473874	0.000677626
9.285034642	1.40871042	0.000691142
9.680572528	1.402074809	0.000710206
10.09296013	1.394761283	0.000735658
10.52291524	1.386688898	0.000768373
10.97118623	1.377764307	0.000809487
11.43855334	1.367879291	0.000860429
11.92583006	1.35690729	0.000922775
12.43386453	1.344698886	0.000998598
12.96354101	1.331075852	0.001090443
13.51578145	1.315821983	0.001201288
14.09154705	1.298669408	0.001335126
14.69183999	1.279274854	0.001496815
15.31770511	1.257166557	0.00169241
15.97023178	1.231536523	0.001930257
16.65055576	1.201748377	0.003955609
17.3598612	1.168534888	0.007138915
18.09938271	1.130062586	0.010738589
18.87040747	1.085528988	0.018317419
19.6742775	1.03779365	0.032106713
20.51239199	0.985359589	0.042934523
21.38620975	0.92140146	0.055338718
22.29725172	0.843832927	0.072559121
23.24710362	0.748271798	0.097417773
24.23741874	0.628134394	0.13868298
25.2699208	0.479353981	0.219545427
26.34640693	0.330467574	0.383771957
27.46875084	0.240449042	0.602411836
28.63890605	0.193670235	0.811039468
29.85890929	0.163609978	1.014892584
31.13088407	0.142917776	1.224538156
32.45704434	0.128195762	1.449661508
33.83969838	0.117939574	1.699778354
35.28125281	0.11216474	1.984967273
36.78421674	0.115095865	2.322911345
38.35120619	0.129320993	2.742053622
39.98494861	0.16252309	3.30067775
41.68828766	0.249309884	4.144988
43.4641881	0.546368858	5.661018423
45.31574103	4.75154627	10.59021649
47.2461692	8.470858736	2.629011977
49.25883265	6.259876772	0.492770791
51.35723457	5.098747275	0.197655855
53.54502738	4.468403478	0.119919093
55.82601908	4.076403626	0.094063566
58.20417989	3.810643354	0.086405866
60.68364918	3.62125234	0.079061052
63.26874264	3.478791772	0.066739614
65.9639598	3.363148002	0.060158874
68.77399188	3.268018054	0.046552913
71.70372994	3.187959153	0.04220131
74.75827339	3.11982838	0.035730169
77.94293888	3.061651395	0.032969445
81.26326955	3.01214023	0.031402838
84.72504466	2.969675236	0.030417038
88.33428968	2.933071825	0.029829797
92.09728676	2.901113456	0.029466522
96.02058565	2.873181669	0.029448593
100.1110151	2.848756604	0.029778331
104.3756949	2.827400575	0.030248909
108.8220479	2.808684928	0.030773375
113.4578133	2.79226936	0.031295401
118.2910601	2.777754999	0.031757295
123.3302008	2.765051334	0.032562219
128.5840064	2.754269652	0.033151011
134.0616215	2.744739633	0.033296927
139.7725803	2.736360868	0.033442145
145.7268231	2.72913542	0.033279153
151.9347137	2.722621584	0.03295656
158.4070574	2.717080443	0.032774692
165.1551198	2.712619133	0.031841657
172.1906463	2.70821366	0.030401887
179.5258827	2.704007493	0.028878542
187.1735965	2.700029676	0.027416632
195.1470992	2.696320351	0.026004543
203.4602692	2.692884986	0.02465015
212.1275761	2.689732678	0.023296356
221.1641059	2.686745855	0.021926123
230.5855875	2.683901496	0.020611876
240.4084196	2.681211567	0.019434431
250.6496994	2.678698555	0.018321198
261.3272527	2.676285045	0.017336538
272.4596645	2.674119199	0.016557955
284.0663115	2.672186761	0.015811184
296.167396	2.670438652	0.015094925
308.7839806	2.668851072	0.014407932
321.9380256	2.667407386	0.013749009
335.6524263	2.666094366	0.013117009
349.9510537	2.664900543	0.012514458
364.8587956	2.663826843	0.011944194
380.4016	2.662870678	0.011397231
396.6065201	2.662034647	0.010872617
413.5017618	2.661343984	0.010369437
431.1167324	2.660857028	0.009709165
449.4820921	2.660259789	0.008860514
468.6298071	2.659591597	0.008046537
488.5932052	2.658880493	0.007265819
509.4070342	2.658097799	0.006517
531.1075221	2.65721324	0.006045178
553.73244	2.656568375	0.005779356
577.3211682	2.65609429	0.005524396
601.9147646	2.655773826	0.005279853
627.556036	2.65564522	0.005045302
654.2896129	2.65586071	0.004820334
682.162027	2.657407133	0.004604559
