Material: optical_polyanskiy / main / Monin
Optical constants. J. Monin and G.-A. Boutry. Optical and photoelectric properties of alkali metals, Phys. Rev. B 9, 1309-1327 (1974)
Comments: 195 K (-78.15 Â°C)
Specs: {"temperature": "195 K"}
wavelength (um)	n	k
0.2536	0.694	0.048
0.2654	0.645	0.050
0.2804	0.568	0.055
0.3130	0.330	0.089
0.3340	0.112	0.258
0.3660	0.056	0.554
0.4060	0.050	0.807
0.4358	0.049	0.970
0.4600	0.049	1.087
0.4916	0.044	1.232
0.5460	0.035	1.466
0.5780	0.030	1.600
0.6200	0.023	1.760
