Material: optical_polyanskiy / main / Whang
Optical constants. U. S. Whang, E. T. Arakawa, T. A. Callcott. Optical properties of K between 4 and 10.7 eV and comparison with Na, Rb, and Cs, Phys. Rev. B 6, 2109-2118 (1972)
Specs: {"n_absolute": true, "wavelength_vacuum": true}
wavelength (um)	n	k
0.116	0.945	0.027
0.120	0.945	0.031
0.125	0.945	0.037
0.130	0.945	0.042
0.135	0.945	0.048
0.140	0.945	0.052
0.145	0.943	0.056
0.150	0.941	0.060
0.155	0.939	0.061
0.160	0.935	0.062
0.165	0.931	0.061
0.170	0.926	0.060
0.175	0.921	0.059
0.180	0.915	0.057
0.185	0.906	0.056
0.190	0.895	0.055
0.195	0.883	0.053
0.200	0.870	0.052
0.205	0.855	0.050
0.210	0.842	0.049
0.215	0.826	0.048
0.220	0.810	0.046
0.225	0.794	0.045
0.230	0.776	0.044
0.235	0.758	0.044
0.240	0.740	0.043
0.245	0.720	0.043
0.250	0.700	0.043
0.255	0.680	0.043
0.260	0.660	0.043
0.265	0.637	0.044
0.270	0.610	0.046
0.275	0.580	0.048
0.280	0.550	0.050
0.285	0.520	0.053
0.290	0.485	0.057
0.295	0.450	0.061
0.300	0.412	0.067
0.305	0.375	0.073
0.310	0.335	0.082
0.315	0.303	0.095
