Material: main / CeF3 / Rodriguez-de Marcos
Optical constants. L. V. Rodríguez-de Marcos, J. I. Larruquert, J. A. Méndez, J. A. Aznárez. Self-consistent optical constants of MgF2, LaF3, and CeF3 films, Opt. Mater. Express 7, 989-1006 (2017) (Numerical data kindly provided by Juan Larruquert)
Comments: 40 nm film prepared by evaporation from tungsten boat at 250 °C
Specs: {"n_absolute": true, "wavelength_vacuum": true, "deposition_temperature": "250 °C"}
wavelength (um)	n	k
2.97987E-02	0.902989	0.174520
3.03255E-02	0.910635	0.180007
3.08617E-02	0.919462	0.182661
3.14073E-02	0.928811	0.182131
3.19626E-02	0.938071	0.178083
3.25277E-02	0.946624	0.170109
3.31028E-02	0.953767	0.157606
3.36881E-02	0.958575	0.139488
3.42837E-02	0.959297	0.113247
3.48898E-02	0.947040	0.069790
3.55067E-02	0.906162	0.033801
3.61344E-02	0.853729	0.017760
3.67733E-02	0.796576	0.020428
3.74234E-02	0.741129	0.039684
3.80851E-02	0.690709	0.071631
3.87584E-02	0.646546	0.113246
3.94437E-02	0.608924	0.162590
4.01410E-02	0.577814	0.218682
4.08507E-02	0.553247	0.281428
4.15730E-02	0.535702	0.351759
4.23080E-02	0.527047	0.432393
4.30560E-02	0.535547	0.527920
4.38172E-02	0.571128	0.627629
4.45919E-02	0.635637	0.719442
4.53803E-02	0.727361	0.789054
4.61826E-02	0.834660	0.821924
4.69991E-02	0.942735	0.812319
4.78301E-02	1.025357	0.754171
4.86757E-02	1.059559	0.686328
4.95363E-02	1.060362	0.643855
5.04121E-02	1.052473	0.637863
5.13034E-02	1.062166	0.655513
5.22105E-02	1.088472	0.666896
5.31335E-02	1.119211	0.667252
5.40729E-02	1.147989	0.664509
5.50290E-02	1.178305	0.662987
5.60019E-02	1.215535	0.662003
5.69920E-02	1.262677	0.648788
5.79996E-02	1.308931	0.613327
5.90250E-02	1.340532	0.556715
6.00686E-02	1.346971	0.496523
6.11306E-02	1.338064	0.450503
6.22114E-02	1.325354	0.417362
6.33113E-02	1.317707	0.390039
6.44307E-02	1.310446	0.348903
6.55698E-02	1.287232	0.294101
6.67291E-02	1.232628	0.235221
6.79089E-02	1.147219	0.216684
6.91095E-02	1.068320	0.249093
7.03313E-02	1.024795	0.313967
7.15748E-02	1.017922	0.356558
7.28403E-02	1.009457	0.363278
7.41281E-02	0.975017	0.369140
7.54387E-02	0.937056	0.397077
7.67724E-02	0.900777	0.430374
7.81298E-02	0.858709	0.469340
7.95111E-02	0.814129	0.531841
8.09169E-02	0.782302	0.622127
8.23475E-02	0.779626	0.721661
8.38034E-02	0.797412	0.821432
8.52850E-02	0.831350	0.908403
8.67929E-02	0.881106	0.992858
8.83274E-02	0.934610	1.043371
8.98890E-02	0.986166	1.116118
9.14782E-02	1.028494	1.174331
9.30956E-02	1.114571	1.260572
9.47415E-02	1.192874	1.282343
9.64166E-02	1.255395	1.335823
9.81212E-02	1.331957	1.392649
9.98560E-02	1.422848	1.461906
1.01621E-01	1.528927	1.502639
1.03418E-01	1.645442	1.613490
1.05247E-01	1.849046	1.679605
1.07107E-01	2.073007	1.689594
1.09001E-01	2.317764	1.660720
1.10928E-01	2.606518	1.601785
1.12889E-01	2.979064	1.378711
1.14885E-01	3.194197	0.802130
1.16916E-01	3.008886	0.170423
1.18984E-01	2.685300	0.061367
1.21087E-01	2.490180	0.037619
1.23228E-01	2.361133	0.027656
1.25407E-01	2.265993	0.022453
1.27624E-01	2.192861	0.020146
1.29880E-01	2.134083	0.018417
1.32177E-01	2.084974	0.016006
1.34513E-01	2.043002	0.016101
1.36892E-01	2.007800	0.016194
1.39312E-01	1.977930	0.015775
1.41775E-01	1.951228	0.014164
1.44281E-01	1.926878	0.012972
1.46832E-01	1.905059	0.012047
1.49428E-01	1.885207	0.011007
1.52070E-01	1.867319	0.010431
1.54759E-01	1.850773	0.008929
1.57495E-01	1.835022	0.007718
1.60280E-01	1.819967	0.006589
1.63113E-01	1.805402	0.005933
1.65997E-01	1.791446	0.006767
1.68932E-01	1.779897	0.008527
1.71919E-01	1.769571	0.009172
1.74958E-01	1.758692	0.008274
1.78052E-01	1.749426	0.011278
1.81200E-01	1.739922	0.010385
1.84403E-01	1.730863	0.011612
1.87663E-01	1.722393	0.013092
1.90981E-01	1.715000	0.014745
1.94358E-01	1.707605	0.015006
1.97794E-01	1.699503	0.015558
2.01291E-01	1.690701	0.016634
2.04850E-01	1.680840	0.018791
2.08472E-01	1.669462	0.023678
2.12157E-01	1.658281	0.037061
2.15908E-01	1.664827	0.065240
2.19726E-01	1.679847	0.051127
2.23610E-01	1.668007	0.040420
2.27564E-01	1.652901	0.053289
2.31587E-01	1.661288	0.083019
2.35682E-01	1.671639	0.069237
2.39849E-01	1.661613	0.077099
2.44089E-01	1.673025	0.113861
2.48405E-01	1.718450	0.118135
2.52796E-01	1.740733	0.074805
2.57266E-01	1.735495	0.045289
2.61814E-01	1.724744	0.030607
2.66443E-01	1.714867	0.022877
2.71154E-01	1.706620	0.018397
2.75948E-01	1.699756	0.015559
2.80827E-01	1.693951	0.013634
2.85792E-01	1.688952	0.012251
2.90845E-01	1.684575	0.011209
2.95987E-01	1.680689	0.010397
3.01220E-01	1.677198	0.009743
3.06545E-01	1.674031	0.009202
3.11965E-01	1.671136	0.008743
3.17481E-01	1.668471	0.008349
3.23094E-01	1.666005	0.008003
3.28806E-01	1.663711	0.007696
3.34619E-01	1.661570	0.007420
3.40535E-01	1.659565	0.007170
3.46556E-01	1.657681	0.006940
3.52683E-01	1.655906	0.006728
3.58919E-01	1.654231	0.006532
3.65264E-01	1.652647	0.006348
3.71722E-01	1.651147	0.006176
3.78294E-01	1.649723	0.006013
3.84983E-01	1.648371	0.005859
3.91789E-01	1.647085	0.005713
3.98716E-01	1.645861	0.005573
4.05765E-01	1.644694	0.005440
4.12939E-01	1.643581	0.005313
4.20240E-01	1.642518	0.005191
4.27670E-01	1.641503	0.005073
4.35231E-01	1.640533	0.004960
4.42926E-01	1.639605	0.004851
4.50757E-01	1.638717	0.004745
4.58726E-01	1.637866	0.004644
4.66837E-01	1.637052	0.004545
4.75090E-01	1.636271	0.004450
4.83490E-01	1.635523	0.004357
4.92038E-01	1.634805	0.004267
5.00738E-01	1.634116	0.004180
5.09591E-01	1.633455	0.004095
5.18600E-01	1.632821	0.004013
5.27769E-01	1.632212	0.003933
5.37100E-01	1.631626	0.003854
5.46596E-01	1.631064	0.003778
5.56260E-01	1.630524	0.003704
5.66095E-01	1.630005	0.003632
5.76103E-01	1.629505	0.003561
5.86289E-01	1.629025	0.003492
5.96654E-01	1.628563	0.003425
6.07203E-01	1.628119	0.003360
6.17938E-01	1.627692	0.003295
6.28864E-01	1.627281	0.003233
6.39982E-01	1.626885	0.003172
6.51297E-01	1.626504	0.003112
6.62812E-01	1.626138	0.003053
6.74530E-01	1.625784	0.002996
6.86456E-01	1.625445	0.002940
6.98593E-01	1.625117	0.002885
7.10944E-01	1.624802	0.002832
7.23513E-01	1.624499	0.002779
7.36305E-01	1.624206	0.002728
7.49323E-01	1.623924	0.002677
7.62571E-01	1.623653	0.002628
7.76053E-01	1.623391	0.002580
7.89774E-01	1.623139	0.002533
8.03737E-01	1.622896	0.002486
8.17947E-01	1.622662	0.002441
8.32409E-01	1.622437	0.002397
8.47126E-01	1.622219	0.002353
8.62103E-01	1.622009	0.002310
8.77345E-01	1.621807	0.002268
8.92857E-01	1.621612	0.002227
9.08642E-01	1.621425	0.002187
9.24707E-01	1.621243	0.002148
9.41056E-01	1.621069	0.002109
9.57694E-01	1.620900	0.002071
9.74626E-01	1.620738	0.002034
9.91858E-01	1.620581	0.001997
1.00939E+00	1.620430	0.001962
1.02724E+00	1.620285	0.001927
1.04540E+00	1.620144	0.001892
1.06388E+00	1.620009	0.001858
1.08269E+00	1.619878	0.001825
1.10184E+00	1.619752	0.001793
1.12132E+00	1.619630	0.001761
1.14114E+00	1.619513	0.001729
1.16132E+00	1.619400	0.001699
1.18185E+00	1.619290	0.001668
1.20274E+00	1.619185	0.001639
1.22401E+00	1.619083	0.001610
1.24565E+00	1.618985	0.001581
1.26767E+00	1.618891	0.001553
1.29008E+00	1.618799	0.001526
1.31289E+00	1.618711	0.001499
1.33611E+00	1.618626	0.001472
1.35973E+00	1.618544	0.001446
1.38377E+00	1.618465	0.001421
1.40823E+00	1.618389	0.001396
1.43313E+00	1.618315	0.001371
1.45847E+00	1.618244	0.001347
1.48425E+00	1.618175	0.001323
1.51050E+00	1.618109	0.001300
1.53720E+00	1.618045	0.001277
1.56438E+00	1.617983	0.001255
1.59204E+00	1.617924	0.001233
1.62018E+00	1.617866	0.001211
1.64883E+00	1.617811	0.001190
1.67798E+00	1.617757	0.001169
1.70765E+00	1.617706	0.001148
1.73784E+00	1.617656	0.001128
1.76856E+00	1.617608	0.001108
1.79983E+00	1.617561	0.001089
1.83165E+00	1.617516	0.001070
1.86404E+00	1.617473	0.001051
1.89699E+00	1.617431	0.001033
1.93053E+00	1.617391	0.001015
1.96466E+00	1.617352	0.000997
1.99940E+00	1.617315	0.000979
