Material: main / Si / Chandler-Horowitz
Optical constants. D. Chandler-Horowitz and P. M. Amirtharaj. High-accuracy, midinfrared (450 cm−1 ≤ ω ≤ 4000 cm−1) refractive index values of silicon, J. Appl. Phys. 97, 123526 (2005)
Comments: Room temperatue.
Dispersion formula 4, range 2.5 22.222 um, coefficients 11.67316 1 0 0 1 0.004482633 0 1.108205 2
wavelength (um)	k
6.25000000	2.67E-06
6.26566416	2.67E-06
6.28140704	2.67E-06
6.29722922	2.23E-06
6.31313131	2.23E-06
6.32911392	2.23E-06
6.34517766	2.23E-06
6.36132316	2.23E-06
6.37755102	2.23E-06
6.39386189	2.23E-06
6.41025641	2.23E-06
6.42673522	2.23E-06
6.44329897	2.23E-06
6.45994832	2.23E-06
6.47668394	2.23E-06
6.49350649	2.23E-06
6.51041667	2.23E-06
6.52741514	2.67E-06
6.54450262	2.67E-06
6.56167979	3.10E-06
6.57894737	3.10E-06
6.59630607	3.54E-06
6.61375661	3.97E-06
6.63129973	4.41E-06
6.64893617	4.41E-06
6.66666667	5.28E-06
6.68449198	5.71E-06
6.70241287	7.02E-06
6.72043011	8.76E-06
6.73854447	1.05E-05
6.75675676	1.22E-05
6.77506775	1.44E-05
6.79347826	1.66E-05
6.81198910	1.92E-05
6.83060109	2.18E-05
6.84931507	2.49E-05
6.86813187	2.75E-05
6.88705234	2.88E-05
6.90607735	2.96E-05
6.92520776	2.92E-05
6.94444444	2.88E-05
6.96378830	2.70E-05
6.98324022	2.53E-05
7.00280112	2.40E-05
7.02247191	2.27E-05
7.04225352	2.18E-05
7.06214689	2.14E-05
7.08215297	2.09E-05
7.10227273	2.09E-05
7.12250712	2.09E-05
7.14285714	2.09E-05
7.16332378	2.09E-05
7.18390805	2.09E-05
7.20461095	2.09E-05
7.22543353	2.09E-05
7.24637681	2.14E-05
7.26744186	2.09E-05
7.28862974	2.14E-05
7.30994152	2.09E-05
7.33137830	2.09E-05
7.35294118	2.01E-05
7.37463127	1.96E-05
7.39644970	1.92E-05
7.41839763	1.92E-05
7.44047619	1.92E-05
7.46268657	1.96E-05
7.48502994	2.01E-05
7.50750751	2.14E-05
7.53012048	2.31E-05
7.55287009	2.44E-05
7.57575758	2.62E-05
7.59878419	2.75E-05
7.62195122	2.88E-05
7.64525994	2.96E-05
7.66871166	3.01E-05
7.69230769	3.01E-05
7.71604938	2.96E-05
7.73993808	2.92E-05
7.76397516	2.83E-05
7.78816199	2.75E-05
7.81250000	2.66E-05
7.83699060	2.53E-05
7.86163522	2.44E-05
7.88643533	2.35E-05
7.91139241	2.22E-05
7.93650794	2.14E-05
7.96178344	2.05E-05
7.98722045	2.01E-05
8.01282051	1.96E-05
8.03858521	1.92E-05
8.06451613	1.92E-05
8.09061489	1.88E-05
8.11688312	1.83E-05
8.14332248	1.83E-05
8.16993464	1.83E-05
8.19672131	1.92E-05
8.22368421	2.01E-05
8.25082508	2.14E-05
8.27814570	2.35E-05
8.30564784	2.57E-05
8.33333333	2.79E-05
8.36120401	3.09E-05
8.38926174	3.31E-05
8.41750842	3.57E-05
8.44594595	3.79E-05
8.47457627	4.01E-05
8.50340136	4.18E-05
8.53242321	4.40E-05
8.56164384	4.53E-05
8.59106529	4.75E-05
8.62068966	4.92E-05
8.65051903	5.14E-05
8.68055556	5.40E-05
8.71080139	5.66E-05
8.74125874	6.05E-05
8.77192982	6.49E-05
8.80281690	6.79E-05
8.83392226	7.10E-05
8.86524823	7.27E-05
8.89679715	7.44E-05
8.92857143	7.53E-05
8.96057348	7.58E-05
8.99280576	7.58E-05
9.02527076	7.49E-05
9.05797101	7.31E-05
9.09090909	7.14E-05
9.12408759	6.88E-05
9.15750916	6.66E-05
9.19117647	6.40E-05
9.22509225	6.18E-05
9.25925926	5.92E-05
9.29368030	5.75E-05
9.32835821	5.49E-05
9.36329588	5.31E-05
9.39849624	5.10E-05
9.43396226	4.97E-05
9.46969697	4.83E-05
9.50570342	4.66E-05
9.54198473	4.57E-05
9.57854406	4.53E-05
9.61538462	4.53E-05
9.65250965	4.57E-05
9.68992248	4.75E-05
9.72762646	4.88E-05
9.76562500	5.10E-05
9.80392157	5.40E-05
9.84251969	5.70E-05
9.88142292	6.05E-05
9.92063492	6.49E-05
9.96015936	6.84E-05
10.0000000	7.40E-05
10.0401606	7.92E-05
10.0806452	8.62E-05
10.1214575	9.32E-05
10.1626016	1.02E-04
10.2040816	1.08E-04
10.2459016	1.15E-04
10.2880658	1.19E-04
10.3305785	1.23E-04
10.3734440	1.26E-04
10.4166667	1.27E-04
10.4602510	1.27E-04
10.5042017	1.25E-04
10.5485232	1.23E-04
10.5932203	1.22E-04
10.6382979	1.24E-04
10.6837607	1.29E-04
10.7296137	1.35E-04
10.7758621	1.41E-04
10.8225108	1.49E-04
10.8695652	1.57E-04
10.9170306	1.67E-04
10.9649123	1.80E-04
11.0132159	1.92E-04
11.0619469	1.99E-04
11.1111111	2.04E-04
11.1607143	2.07E-04
11.2107623	2.10E-04
11.2612613	2.12E-04
11.3122172	2.12E-04
11.3636364	2.12E-04
11.4155251	2.10E-04
11.4678899	2.08E-04
11.5207373	2.03E-04
11.5740741	1.98E-04
11.6279070	1.84E-04
11.6822430	1.72E-04
11.7370892	1.62E-04
11.7924528	1.57E-04
11.8483412	1.48E-04
11.9047619	1.42E-04
11.9617225	1.43E-04
12.0192308	1.58E-04
12.0772947	1.79E-04
12.1359223	1.99E-04
12.1951220	2.12E-04
12.2549020	2.12E-04
12.3152709	2.03E-04
12.3762376	1.92E-04
12.4378109	1.76E-04
12.5000000	1.68E-04
12.5628141	1.91E-04
12.6262626	2.06E-04
12.6903553	2.10E-04
12.7551020	2.12E-04
12.8205128	2.16E-04
12.8865979	2.19E-04
12.9533679	2.22E-04
13.0208333	2.28E-04
13.0890052	2.34E-04
13.1578947	2.41E-04
13.2275132	2.48E-04
13.2978723	2.58E-04
13.3689840	2.73E-04
13.4408602	3.01E-04
13.5135135	3.33E-04
13.5869565	3.25E-04
13.6612022	3.01E-04
13.7362637	2.76E-04
13.8121547	2.52E-04
13.8888889	2.25E-04
13.9664804	1.91E-04
14.0449438	1.34E-04
14.1242938	1.04E-04
14.2045455	9.27E-05
14.2857143	9.27E-05
14.3678161	1.04E-04
14.4508671	1.14E-04
14.5348837	1.16E-04
14.6198830	1.13E-04
14.7058824	1.11E-04
14.7928994	1.11E-04
14.8809524	1.13E-04
14.9700599	1.17E-04
15.0602410	1.20E-04
15.1515152	1.24E-04
15.2439024	1.27E-04
15.3374233	1.28E-04
15.4320988	1.28E-04
15.5279503	1.30E-04
15.6250000	1.32E-04
15.7232704	1.31E-04
15.8227848	1.57E-04
15.9235669	4.54E-04
16.0256410	9.64E-04
16.1290323	0.017
16.2337662	0.016
16.3398693	0.024
16.4473684	0.019
16.5562914	9.92E-04
16.6666667	7.48E-04
16.7785235	5.40E-04
16.8918919	4.34E-04
17.0068027	3.72E-04
17.1232877	3.39E-04
17.2413793	3.29E-04
17.3611111	3.32E-04
17.4825175	3.56E-04
17.6056338	4.04E-04
17.7304965	3.98E-04
17.8571429	3.79E-04
17.9856115	3.63E-04
18.1159420	3.52E-04
18.2481752	3.41E-04
18.3823529	3.29E-04
18.5185185	3.15E-04
18.6567164	3.08E-04
18.7969925	3.03E-04
18.9393939	2.97E-04
19.0839695	2.91E-04
19.2307692	2.79E-04
19.3798450	2.66E-04
19.5312500	2.45E-04
19.6850394	2.34E-04
19.8412698	2.21E-04
20.0000000	2.11E-04
20.1612903	2.06E-04
20.3252033	2.17E-04
20.4918033	2.28E-04
20.6611570	2.29E-04
20.8333333	2.17E-04
21.0084034	2.08E-04
21.1864407	1.93E-04
21.3675214	1.65E-04
21.5517241	1.11E-04
21.7391304	8.36E-05
21.9298246	7.36E-05
22.1238938	7.62E-05
22.3214286	7.71E-05
22.5225225	8.23E-05
22.7272727	8.36E-05
22.9357798	9.27E-05
23.1481481	1.04E-04
