Material: main / Si / Daub
Optical constants. E. Daub. Photolumineszenz von Silizium Ph.D. dissertation, Dept. Phys., University of Karlsruhe, Karlsruhe, Germany, 1995 (as cited in C. Schinke, D. Hinken, J. Schmidt, K. Bothe, R. Brendel. Modeling the spectral luminescence emission of silicon solar cells and wafers, IEEE J. Photovolt. 3, 1038-1052 (2013))
Comments: Band-to-band absorption coefficient. Temperature: 295 K.
Specs: {"temperature": "295 K"}
wavelength (um)	k
9.4100e-01	1.2805e-03
9.4800e-01	9.9580e-04
9.5500e-01	9.1196e-04
9.6200e-01	8.0381e-04
9.6900e-01	7.6417e-04
9.7600e-01	7.3474e-04
9.8300e-01	6.7586e-04
9.9000e-01	6.1371e-04
9.9700e-01	5.4664e-04
1.0040e+00	4.7618e-04
1.0110e+00	4.1272e-04
1.0180e+00	3.5401e-04
1.0250e+00	2.9853e-04
1.0320e+00	2.4884e-04
1.0390e+00	2.0340e-04
1.0460e+00	1.6398e-04
1.0530e+00	1.3072e-04
1.0600e+00	1.0207e-04
1.0670e+00	8.1343e-05
1.0740e+00	6.7091e-05
1.0810e+00	5.5571e-05
1.0880e+00	4.6320e-05
1.0950e+00	3.8340e-05
1.1020e+00	3.1482e-05
1.1090e+00	2.6034e-05
1.1160e+00	2.1403e-05
1.1230e+00	1.7337e-05
1.1300e+00	1.3848e-05
1.1340e+00	1.2002e-05
1.1370e+00	1.0858e-05
1.1410e+00	9.2614e-06
1.1480e+00	7.0343e-06
1.1550e+00	5.0919e-06
1.1620e+00	3.4491e-06
1.1690e+00	2.1489e-06
1.1760e+00	1.0388e-06
1.1830e+00	4.3493e-07
1.1900e+00	2.6515e-07
1.1970e+00	1.8384e-07
1.2040e+00	1.2935e-07
1.2110e+00	9.0490e-08
1.2180e+00	6.4358e-08
1.2250e+00	4.4744e-08
1.2320e+00	3.0098e-08
1.2390e+00	1.9029e-08
1.2460e+00	1.0907e-08
1.2530e+00	5.2547e-09
1.2600e+00	2.7273e-09
1.2670e+00	1.7443e-09
1.2740e+00	1.2166e-09
1.2810e+00	8.6444e-10
1.2880e+00	6.1497e-10
1.2950e+00	4.3694e-10
1.3020e+00	3.1083e-10
1.3090e+00	2.1667e-10
1.3160e+00	1.4766e-10
1.3230e+00	9.4648e-11
1.3300e+00	5.9693e-11
1.3370e+00	3.5749e-11
1.3440e+00	2.3850e-11
1.3510e+00	1.7739e-11
1.3580e+00	1.2860e-11
1.3650e+00	1.0276e-11
1.3720e+00	7.0312e-12
1.3790e+00	6.3099e-12
1.3860e+00	5.0405e-12
1.3930e+00	4.5338e-12
1.4000e+00	3.4982e-12
1.4070e+00	2.5416e-12
1.4140e+00	2.2955e-12
1.4210e+00	1.6057e-12
