Material: main / Si / Li-100K
Optical constants. H. H. Li. Refractive index of silicon and germanium and its wavelength and temperature derivatives, J. Phys. Chem. Ref. Data 9, 561-658 (1993)
Comments: 100 K (-173 Â°C)
wavelength (um)	n
1.20	3.4845
1.22	3.4814
1.24	3.4785
1.26	3.4757
1.28	3.4731
1.30	3.4706
1.32	3.4682
1.34	3.4658
1.36	3.4636
1.38	3.4615
1.40	3.4595
1.45	3.4548
1.50	3.4506
1.55	3.4467
1.60	3.4432
1.65	3.4400
1.70	3.4371
1.80	3.4320
1.90	3.4277
2.00	3.4240
2.25	3.4168
2.50	3.4116
2.75	3.4078
3.00	3.4048
4.00	3.3981
5.00	3.3950
6.00	3.3933
7.00	3.3923
8.00	3.3916
9.00	3.3912
10.0	3.3909
11.0	3.3906
12.0	3.3904
13.0	3.3903
14.0	3.3902
