Material: main / Si / Li-150K
Optical constants. H. H. Li. Refractive index of silicon and germanium and its wavelength and temperature derivatives, J. Phys. Chem. Ref. Data 9, 561-658 (1993)
Comments: 150 K (-123 Â°C)
wavelength (um)	n
1.20	3.4915
1.22	3.4884
1.24	3.4854
1.26	3.4826
1.28	3.4799
1.30	3.4773
1.32	3.4740
1.34	3.4725
1.36	3.4702
1.38	3.4681
1.40	3.4660
1.45	3.4612
1.50	3.4568
1.55	3.4529
1.60	3.4493
1.65	3.4461
1.70	3.4431
1.80	3.4379
1.90	3.4334
2.00	3.4297
2.25	3.4223
2.50	3.4170
2.75	3.4131
3.00	3.4101
4.00	3.4032
5.00	3.4000
6.00	3.3983
7.00	3.3973
8.00	3.3966
9.00	3.3961
10.0	3.3958
11.0	3.3955
12.0	3.3954
13.0	3.3952
14.0	3.3951
