Material: main / Si / Li-250K
Optical constants. H. H. Li. Refractive index of silicon and germanium and its wavelength and temperature derivatives, J. Phys. Chem. Ref. Data 9, 561-658 (1993)
Comments: 250 K (-23 Â°C)
wavelength (um)	n
1.20	3.5084
1.22	3.5051
1.24	3.5020
1.26	3.4991
1.28	3.4963
1.30	3.4936
1.32	3.4910
1.34	3.4885
1.36	3.4862
1.38	3.4839
1.40	3.4818
1.45	3.4768
1.50	3.4722
1.55	3.4681
1.60	3.4644
1.65	3.4610
1.70	3.4579
1.80	3.4524
1.90	3.4478
2.00	3.4439
2.25	3.4362
2.50	3.4306
2.75	3.4266
3.00	3.4234
4.00	3.4163
5.00	3.4129
6.00	3.4111
7.00	3.4100
8.00	3.4093
9.00	3.4088
10.0	3.4085
11.0	3.4082
12.0	3.4080
13.0	3.4079
14.0	3.4078
