Material: main / Si / Li-500K
Optical constants. H. H. Li. Refractive index of silicon and germanium and its wavelength and temperature derivatives, J. Phys. Chem. Ref. Data 9, 561-658 (1993)
Comments: 500 K (227 Â°C)
wavelength (um)	n
1.20	3.5627
1.22	3.5591
1.24	3.5557
1.26	3.5524
1.28	3.5493
1.30	3.5463
1.32	3.5435
1.34	3.5408
1.36	3.5382
1.38	3.5357
1.40	3.5333
1.45	3.5278
1.50	3.5228
1.55	3.5183
1.60	3.5142
1.65	3.5104
1.70	3.5070
1.80	3.5010
1.90	3.4958
2.00	3.4915
2.25	3.4830
2.50	3.4769
2.75	3.4724
3.00	3.4689
4.00	3.4610
5.00	3.4573
6.00	3.4553
7.00	3.4541
8.00	3.4533
9.00	3.4528
10.0	3.4524
11.0	3.4521
12.0	3.4519
13.0	3.4518
14.0	3.4516
