Material: main / Si / Li-700K
Optical constants. H. H. Li. Refractive index of silicon and germanium and its wavelength and temperature derivatives, J. Phys. Chem. Ref. Data 9, 561-658 (1993)
Comments: 700 K (427 Â°C)
wavelength (um)	n
1.20	3.6126
1.22	3.6087
1.24	3.6051
1.26	3.6016
1.28	3.5982
1.30	3.5950
1.32	3.5920
1.34	3.5891
1.36	3.5863
1.38	3.5836
1.40	3.5810
1.45	3.5751
1.50	3.5697
1.55	3.5648
1.60	3.5604
1.65	3.5564
1.70	3.5527
1.80	3.5462
1.90	3.5407
2.00	3.5360
2.25	3.5269
2.50	3.5203
2.75	3.5154
3.00	3.5117
4.00	3.5032
5.00	3.4992
6.00	3.4971
7.00	3.4958
8.00	3.4950
9.00	3.4944
10.0	3.4940
11.0	3.4937
12.0	3.4934
13.0	3.4932
14.0	3.4931
