Material: main / Si / Sik-700C
Optical constants. J. Šik, J. Hora, J. Humlı́ček. Optical functions of silicon at high temperatures, J. Appl. Phys. 84, 6291–6298 (1998)
Comments: Temperature: 700 °C (973 K).
Specs: {"temperature": "700 °C"}
wavelength (um)	n	k
0.2883	2.8424	4.5419
0.2917	3.0089	4.6080
0.2952	3.2509	4.6603
0.2988	3.5227	4.6626
0.3024	3.8053	4.6120
0.3061	4.0726	4.4984
0.3100	4.3001	4.3302
0.3139	4.4805	4.1334
0.3179	4.6161	3.9330
0.3220	4.7120	3.7500
0.3263	4.7795	3.5893
0.3306	4.8311	3.4423
0.3351	4.8761	3.3100
0.3397	4.9164	3.1924
0.3444	4.9574	3.0863
0.3493	5.0004	2.9907
0.3542	5.0481	2.9041
0.3594	5.1043	2.8221
0.3647	5.1726	2.7433
0.3701	5.2548	2.6633
0.3757	5.3543	2.5727
0.3815	5.4656	2.4563
0.3875	5.5802	2.3019
0.3936	5.6809	2.1053
0.3999	5.7476	1.8747
0.4065	5.7654	1.6278
0.4133	5.7308	1.3864
0.4203	5.6544	1.1672
0.4275	5.5507	0.9801
0.4350	5.4345	0.8271
0.4428	5.3170	0.7072
0.4509	5.2053	0.6128
0.4592	5.1020	0.5390
0.4679	5.0060	0.4794
0.4769	4.9149	0.4313
0.4862	4.8303	0.3892
0.4959	4.7512	0.3525
0.5061	4.6768	0.3197
0.5166	4.6069	0.2898
0.5276	4.5409	0.2643
0.5391	4.4787	0.2423
0.5510	4.4204	0.2228
0.5636	4.3661	0.2061
0.5767	4.3171	0.1923
0.5904	4.2711	0.1803
0.6048	4.2272	0.1703
0.6199	4.1840	0.1601
