Material: main / Si / Sik-500C
Optical constants. J. Šik, J. Hora, J. Humlı́ček. Optical functions of silicon at high temperatures, J. Appl. Phys. 84, 6291–6298 (1998)
Comments: Temperature: 500 °C (773 K).
Specs: {"temperature": "500 °C"}
wavelength (um)	n	k
0.2883	3.1895	4.8221
0.2917	3.4170	4.8493
0.2952	3.7198	4.8309
0.2988	4.0242	4.7438
0.3024	4.3008	4.5910
0.3061	4.5282	4.3925
0.3100	4.6989	4.1701
0.3139	4.8164	3.9532
0.3179	4.8929	3.7564
0.3220	4.9435	3.5886
0.3263	4.9816	3.4447
0.3306	5.0161	3.3183
0.3351	5.0530	3.2051
0.3397	5.0914	3.1052
0.3444	5.1341	3.0181
0.3493	5.1854	2.9390
0.3542	5.2501	2.8676
0.3594	5.3361	2.7989
0.3647	5.4487	2.7199
0.3701	5.5884	2.6116
0.3757	5.7395	2.4540
0.3815	5.8718	2.2378
0.3875	5.9543	1.9784
0.3936	5.9749	1.7029
0.3999	5.9371	1.4317
0.4065	5.8515	1.1834
0.4133	5.7319	0.9718
0.4203	5.5922	0.8020
0.4275	5.4477	0.6691
0.4350	5.3105	0.5668
0.4428	5.1855	0.4898
0.4509	5.0730	0.4307
0.4592	4.9706	0.3833
0.4679	4.8773	0.3434
0.4769	4.7914	0.3120
0.4862	4.7107	0.2845
0.4959	4.6355	0.2600
0.5061	4.5647	0.2377
0.5166	4.4987	0.2201
0.5276	4.4364	0.2051
0.5391	4.3780	0.1919
0.5510	4.3236	0.1839
0.5636	4.2722	0.1779
0.5767	4.2249	0.1728
0.5904	4.1806	0.1650
0.6048	4.1393	0.1534
0.6199	4.1024	0.1389
