Material: main / Si / Sik-850C
Optical constants. J. Šik, J. Hora, J. Humlı́ček. Optical functions of silicon at high temperatures, J. Appl. Phys. 84, 6291–6298 (1998)
Comments: Temperature: 850 °C (1123 K).
Specs: {"temperature": "850 °C"}
wavelength (um)	n	k
0.2883	2.8774	4.4866
0.2917	2.9923	4.5082
0.2952	3.1908	4.5553
0.2988	3.4032	4.5751
0.3024	3.6322	4.5358
0.3061	3.8594	4.4593
0.3100	4.0732	4.3222
0.3139	4.2785	4.1744
0.3179	4.4331	3.9927
0.3220	4.5417	3.8245
0.3263	4.6201	3.6709
0.3306	4.6728	3.5193
0.3351	4.7209	3.3892
0.3397	4.7686	3.2756
0.3444	4.8100	3.1663
0.3493	4.8603	3.0729
0.3542	4.9165	2.9869
0.3594	4.9632	2.9023
0.3647	5.0155	2.8223
0.3701	5.0853	2.7442
0.3757	5.1611	2.6622
0.3815	5.2512	2.5642
0.3875	5.3543	2.4410
0.3936	5.4526	2.2916
0.3999	5.5346	2.1122
0.4065	5.5896	1.9089
0.4133	5.6069	1.6961
0.4203	5.5870	1.4847
0.4275	5.5370	1.2877
0.4350	5.4646	1.1099
0.4428	5.3781	0.9613
0.4509	5.2857	0.8419
0.4592	5.1903	0.7476
0.4679	5.0980	0.6708
0.4769	5.0115	0.6046
0.4862	4.9294	0.5467
0.4959	4.8524	0.4956
0.5061	4.7804	0.4498
0.5166	4.7093	0.4088
0.5276	4.6432	0.3737
0.5391	4.5821	0.3405
0.5510	4.5251	0.3105
0.5636	4.4723	0.2862
0.5767	4.4227	0.2657
0.5904	4.3750	0.2457
0.6048	4.3281	0.2287
0.6199	4.2844	0.2147
