Material: main / Si / Sik-250C
Optical constants. J. Šik, J. Hora, J. Humlı́ček. Optical functions of silicon at high temperatures, J. Appl. Phys. 84, 6291–6298 (1998)
Comments: Temperature: 250 °C (523 K).
Specs: {"temperature": "250 °C"}
wavelength (um)	n	k
0.2883	3.6357	5.1613
0.2917	3.9398	5.0904
0.2952	4.3119	4.9317
0.2988	4.6142	4.6638
0.3024	4.8106	4.3591
0.3061	4.9182	4.0889
0.3100	4.9793	3.8540
0.3139	5.0177	3.6630
0.3179	5.0385	3.5080
0.3220	5.0550	3.3798
0.3263	5.0794	3.2711
0.3306	5.1125	3.1746
0.3351	5.1480	3.0905
0.3397	5.1920	3.0162
0.3444	5.2480	2.9516
0.3493	5.3152	2.9020
0.3542	5.4097	2.8680
0.3594	5.5622	2.8298
0.3647	5.7863	2.7461
0.3701	6.0540	2.5653
0.3757	6.2898	2.2497
0.3815	6.4122	1.8239
0.3875	6.3626	1.3831
0.3936	6.1816	1.0256
0.3999	5.9552	0.7775
0.4065	5.7376	0.6083
0.4133	5.5428	0.4925
0.4203	5.3703	0.4125
0.4275	5.2187	0.3526
0.4350	5.0856	0.3048
0.4428	4.9702	0.2706
0.4509	4.8691	0.2413
0.4592	4.7777	0.2156
0.4679	4.6924	0.1971
0.4769	4.6157	0.1852
0.4862	4.5453	0.1716
0.4959	4.4795	0.1596
0.5061	4.4172	0.1483
0.5166	4.3577	0.1411
0.5276	4.3010	0.1372
0.5391	4.2481	0.1283
0.5510	4.1993	0.1191
0.5636	4.1537	0.1144
0.5767	4.1113	0.1119
0.5904	4.0732	0.1031
0.6048	4.0372	0.0929
0.6199	4.0013	0.1012
