Material: main / InSb / Aspnes
Optical constants. D. E. Aspnes and A. A. Studna. Dielectric functions and optical parameters of Si, Ge, GaP, GaAs, GaSb, InP, InAs, and InSb from 1.5 to 6.0 eV, Phys. Rev. B 27, 985-1009 (1983)
Comments: Crysal orientation: ; Doping: 8Ã—1015 cm-3, n; Room temperature
wavelength (um)	n	k
0.2066	0.861	2.139
0.2101	0.922	2.185
0.2138	0.969	2.210
0.2175	1.000	2.235
0.2214	1.025	2.275
0.2254	1.057	2.333
0.2296	1.116	2.394
0.2339	1.194	2.435
0.2384	1.270	2.444
0.2431	1.309	2.430
0.2480	1.307	2.441
0.2530	1.301	2.495
0.2583	1.312	2.576
0.2638	1.341	2.669
0.2695	1.385	2.776
0.2755	1.443	2.894
0.2818	1.515	3.034
0.2883	1.618	3.209
0.2952	1.791	3.433
0.3024	2.127	3.666
0.3100	2.632	3.694
0.3179	3.044	3.479
0.3263	3.287	3.204
0.3351	3.427	2.933
0.3444	3.485	2.705
0.3542	3.511	2.517
0.3647	3.520	2.369
0.3757	3.525	2.217
0.3875	3.482	2.093
0.3999	3.419	2.015
0.4133	3.366	1.994
0.4275	3.342	2.004
0.4428	3.345	2.036
0.4592	3.377	2.083
0.4769	3.447	2.145
0.4959	3.570	2.221
0.5166	3.822	2.287
0.5391	4.111	2.060
0.5636	4.135	1.850
0.5904	4.136	1.770
0.6199	4.194	1.773
0.6525	4.433	1.873
0.6888	4.909	1.396
0.7293	4.754	0.949
0.7749	4.568	0.749
0.8266	4.418	0.643
