Material: main / GeO2 / Nunley
Optical constants. T. N. Nunley, N. S. Fernando, N. Samarasingha, J. M. Moya, C. M. Nelson, A. A. Medina, S. Zollner, Optical constants of germanium and thermally grown germanium dioxide from 0.5 to 6.6 eV via a multi-sample ellipsometry investigation, J. Vac. Sci. Technol. B 34, 061205 (2016) (see supplemental materials)
Comments: 300 K
Specs: {"n_absolute": true, "wavelength_vacuum": true}
wavelength (um)	n	k
1.879E-1	2.070E+0	7.627E-2
1.884E-1	2.063E+0	7.449E-2
1.890E-1	2.057E+0	7.276E-2
1.896E-1	2.051E+0	7.108E-2
1.902E-1	2.045E+0	6.945E-2
1.907E-1	2.039E+0	6.786E-2
1.913E-1	2.034E+0	6.632E-2
1.919E-1	2.028E+0	6.482E-2
1.925E-1	2.022E+0	6.335E-2
1.931E-1	2.017E+0	6.193E-2
1.937E-1	2.011E+0	6.054E-2
1.943E-1	2.006E+0	5.919E-2
1.949E-1	2.001E+0	5.787E-2
1.956E-1	1.996E+0	5.659E-2
1.962E-1	1.991E+0	5.534E-2
1.968E-1	1.986E+0	5.412E-2
1.974E-1	1.981E+0	5.293E-2
1.981E-1	1.976E+0	5.177E-2
1.987E-1	1.971E+0	5.064E-2
1.993E-1	1.966E+0	4.953E-2
2.000E-1	1.961E+0	4.846E-2
2.006E-1	1.957E+0	4.741E-2
2.013E-1	1.952E+0	4.638E-2
2.019E-1	1.948E+0	4.538E-2
2.026E-1	1.943E+0	4.440E-2
2.033E-1	1.939E+0	4.345E-2
2.039E-1	1.935E+0	4.251E-2
2.046E-1	1.930E+0	4.160E-2
2.053E-1	1.926E+0	4.071E-2
2.060E-1	1.922E+0	3.984E-2
2.066E-1	1.918E+0	3.899E-2
2.073E-1	1.914E+0	3.816E-2
2.080E-1	1.910E+0	3.734E-2
2.087E-1	1.906E+0	3.655E-2
2.094E-1	1.902E+0	3.577E-2
2.101E-1	1.898E+0	3.501E-2
2.109E-1	1.894E+0	3.426E-2
2.116E-1	1.891E+0	3.353E-2
2.123E-1	1.887E+0	3.282E-2
2.130E-1	1.883E+0	3.212E-2
2.138E-1	1.880E+0	3.144E-2
2.145E-1	1.876E+0	3.077E-2
2.153E-1	1.872E+0	3.012E-2
2.160E-1	1.869E+0	2.948E-2
2.168E-1	1.866E+0	2.885E-2
2.175E-1	1.862E+0	2.823E-2
2.183E-1	1.859E+0	2.763E-2
2.191E-1	1.855E+0	2.704E-2
2.198E-1	1.852E+0	2.646E-2
2.206E-1	1.849E+0	2.590E-2
2.214E-1	1.846E+0	2.534E-2
2.222E-1	1.843E+0	2.480E-2
2.230E-1	1.839E+0	2.427E-2
2.238E-1	1.836E+0	2.374E-2
2.246E-1	1.833E+0	2.323E-2
2.254E-1	1.830E+0	2.273E-2
2.262E-1	1.827E+0	2.224E-2
2.271E-1	1.824E+0	2.175E-2
2.279E-1	1.821E+0	2.128E-2
2.288E-1	1.819E+0	2.081E-2
2.296E-1	1.816E+0	2.036E-2
2.305E-1	1.813E+0	1.991E-2
2.313E-1	1.810E+0	1.947E-2
2.322E-1	1.807E+0	1.904E-2
2.331E-1	1.805E+0	1.862E-2
2.339E-1	1.802E+0	1.821E-2
2.348E-1	1.799E+0	1.780E-2
2.357E-1	1.796E+0	1.740E-2
2.366E-1	1.794E+0	1.701E-2
2.375E-1	1.791E+0	1.663E-2
2.384E-1	1.789E+0	1.625E-2
2.394E-1	1.786E+0	1.588E-2
2.403E-1	1.784E+0	1.552E-2
2.412E-1	1.781E+0	1.516E-2
2.422E-1	1.779E+0	1.481E-2
2.431E-1	1.776E+0	1.447E-2
2.441E-1	1.774E+0	1.413E-2
2.450E-1	1.771E+0	1.380E-2
2.460E-1	1.769E+0	1.347E-2
2.470E-1	1.767E+0	1.315E-2
2.480E-1	1.764E+0	1.284E-2
2.490E-1	1.762E+0	1.253E-2
2.500E-1	1.760E+0	1.223E-2
2.510E-1	1.758E+0	1.193E-2
2.520E-1	1.755E+0	1.164E-2
2.530E-1	1.753E+0	1.136E-2
2.541E-1	1.751E+0	1.107E-2
2.551E-1	1.749E+0	1.080E-2
2.562E-1	1.747E+0	1.053E-2
2.572E-1	1.745E+0	1.026E-2
2.583E-1	1.743E+0	9.998E-3
2.594E-1	1.741E+0	9.741E-3
2.605E-1	1.738E+0	9.489E-3
2.616E-1	1.736E+0	9.241E-3
2.627E-1	1.734E+0	8.997E-3
2.638E-1	1.732E+0	8.758E-3
2.649E-1	1.730E+0	8.524E-3
2.661E-1	1.728E+0	8.293E-3
2.672E-1	1.727E+0	8.067E-3
2.684E-1	1.725E+0	7.844E-3
2.695E-1	1.723E+0	7.626E-3
2.707E-1	1.721E+0	7.412E-3
2.719E-1	1.719E+0	7.201E-3
2.731E-1	1.717E+0	6.995E-3
2.743E-1	1.715E+0	6.792E-3
2.755E-1	1.713E+0	6.593E-3
2.768E-1	1.712E+0	6.398E-3
2.780E-1	1.710E+0	6.206E-3
2.792E-1	1.708E+0	6.018E-3
2.805E-1	1.706E+0	5.833E-3
2.818E-1	1.705E+0	5.652E-3
2.831E-1	1.703E+0	5.474E-3
2.844E-1	1.701E+0	5.300E-3
2.857E-1	1.700E+0	5.128E-3
2.870E-1	1.698E+0	4.961E-3
2.883E-1	1.696E+0	4.796E-3
2.897E-1	1.695E+0	4.635E-3
2.910E-1	1.693E+0	4.477E-3
2.924E-1	1.691E+0	4.322E-3
2.938E-1	1.690E+0	4.170E-3
2.952E-1	1.688E+0	4.021E-3
2.966E-1	1.687E+0	3.875E-3
2.980E-1	1.685E+0	3.732E-3
2.995E-1	1.684E+0	3.592E-3
3.009E-1	1.682E+0	3.455E-3
3.024E-1	1.680E+0	3.321E-3
3.039E-1	1.679E+0	3.190E-3
3.054E-1	1.678E+0	3.062E-3
3.069E-1	1.676E+0	2.937E-3
3.084E-1	1.675E+0	2.814E-3
3.100E-1	1.673E+0	2.694E-3
3.115E-1	1.672E+0	2.577E-3
3.131E-1	1.670E+0	2.463E-3
3.147E-1	1.669E+0	2.351E-3
3.163E-1	1.667E+0	2.242E-3
3.179E-1	1.666E+0	2.136E-3
3.195E-1	1.665E+0	2.032E-3
3.212E-1	1.663E+0	1.931E-3
3.229E-1	1.662E+0	1.833E-3
3.246E-1	1.661E+0	1.737E-3
3.263E-1	1.659E+0	1.644E-3
3.280E-1	1.658E+0	1.554E-3
3.297E-1	1.657E+0	1.466E-3
3.315E-1	1.655E+0	1.380E-3
3.333E-1	1.654E+0	1.298E-3
3.351E-1	1.653E+0	1.217E-3
3.369E-1	1.652E+0	1.140E-3
3.388E-1	1.650E+0	1.065E-3
3.406E-1	1.649E+0	9.922E-4
3.425E-1	1.648E+0	9.222E-4
3.444E-1	1.647E+0	8.547E-4
3.463E-1	1.646E+0	7.897E-4
3.483E-1	1.644E+0	7.272E-4
3.502E-1	1.643E+0	6.673E-4
3.522E-1	1.642E+0	6.099E-4
3.542E-1	1.641E+0	5.551E-4
3.563E-1	1.640E+0	5.027E-4
3.583E-1	1.639E+0	4.530E-4
3.604E-1	1.637E+0	4.057E-4
3.625E-1	1.636E+0	3.610E-4
3.647E-1	1.635E+0	3.188E-4
3.668E-1	1.634E+0	2.792E-4
3.690E-1	1.633E+0	2.422E-4
3.712E-1	1.632E+0	2.077E-4
3.734E-1	1.631E+0	1.759E-4
3.757E-1	1.630E+0	1.466E-4
3.780E-1	1.629E+0	1.199E-4
3.803E-1	1.628E+0	9.589E-5
3.827E-1	1.627E+0	7.449E-5
3.850E-1	1.626E+0	5.575E-5
3.875E-1	1.625E+0	3.969E-5
3.899E-1	1.624E+0	2.632E-5
3.924E-1	1.623E+0	1.566E-5
3.949E-1	1.622E+0	7.736E-6
3.974E-1	1.621E+0	2.566E-6
3.999E-1	1.620E+0	1.757E-7
4.025E-1	1.619E+0	0.000E+0
4.052E-1	1.618E+0	0.000E+0
4.078E-1	1.617E+0	0.000E+0
4.105E-1	1.616E+0	0.000E+0
4.133E-1	1.615E+0	0.000E+0
4.161E-1	1.614E+0	0.000E+0
4.189E-1	1.613E+0	0.000E+0
4.217E-1	1.613E+0	0.000E+0
4.246E-1	1.612E+0	0.000E+0
4.275E-1	1.611E+0	0.000E+0
4.305E-1	1.610E+0	0.000E+0
4.335E-1	1.609E+0	0.000E+0
4.366E-1	1.608E+0	0.000E+0
4.397E-1	1.608E+0	0.000E+0
4.428E-1	1.607E+0	0.000E+0
4.460E-1	1.606E+0	0.000E+0
4.492E-1	1.605E+0	0.000E+0
4.525E-1	1.604E+0	0.000E+0
4.558E-1	1.604E+0	0.000E+0
4.592E-1	1.603E+0	0.000E+0
4.626E-1	1.602E+0	0.000E+0
4.661E-1	1.601E+0	0.000E+0
4.696E-1	1.601E+0	0.000E+0
4.732E-1	1.600E+0	0.000E+0
4.769E-1	1.599E+0	0.000E+0
4.806E-1	1.599E+0	0.000E+0
4.843E-1	1.598E+0	0.000E+0
4.881E-1	1.597E+0	0.000E+0
4.920E-1	1.596E+0	0.000E+0
4.959E-1	1.596E+0	0.000E+0
4.999E-1	1.595E+0	0.000E+0
5.040E-1	1.594E+0	0.000E+0
5.081E-1	1.594E+0	0.000E+0
5.123E-1	1.593E+0	0.000E+0
5.166E-1	1.592E+0	0.000E+0
5.209E-1	1.592E+0	0.000E+0
5.254E-1	1.591E+0	0.000E+0
5.298E-1	1.591E+0	0.000E+0
5.344E-1	1.590E+0	0.000E+0
5.391E-1	1.589E+0	0.000E+0
5.438E-1	1.589E+0	0.000E+0
5.486E-1	1.588E+0	0.000E+0
5.535E-1	1.587E+0	0.000E+0
5.585E-1	1.587E+0	0.000E+0
5.636E-1	1.586E+0	0.000E+0
5.687E-1	1.586E+0	0.000E+0
5.740E-1	1.585E+0	0.000E+0
5.794E-1	1.585E+0	0.000E+0
5.848E-1	1.584E+0	0.000E+0
5.904E-1	1.583E+0	0.000E+0
5.961E-1	1.583E+0	0.000E+0
6.019E-1	1.582E+0	0.000E+0
6.078E-1	1.582E+0	0.000E+0
6.138E-1	1.581E+0	0.000E+0
6.199E-1	1.581E+0	0.000E+0
6.262E-1	1.580E+0	0.000E+0
6.326E-1	1.580E+0	0.000E+0
6.391E-1	1.579E+0	0.000E+0
6.458E-1	1.579E+0	0.000E+0
6.525E-1	1.578E+0	0.000E+0
6.595E-1	1.578E+0	0.000E+0
6.666E-1	1.577E+0	0.000E+0
6.738E-1	1.577E+0	0.000E+0
6.812E-1	1.576E+0	0.000E+0
6.888E-1	1.576E+0	0.000E+0
6.965E-1	1.575E+0	0.000E+0
7.045E-1	1.575E+0	0.000E+0
7.126E-1	1.574E+0	0.000E+0
7.208E-1	1.574E+0	0.000E+0
7.293E-1	1.573E+0	0.000E+0
7.380E-1	1.573E+0	0.000E+0
7.469E-1	1.573E+0	0.000E+0
7.560E-1	1.572E+0	0.000E+0
7.653E-1	1.572E+0	0.000E+0
7.749E-1	1.571E+0	0.000E+0
7.847E-1	1.571E+0	0.000E+0
7.948E-1	1.570E+0	0.000E+0
8.051E-1	1.570E+0	0.000E+0
8.157E-1	1.570E+0	0.000E+0
8.266E-1	1.569E+0	0.000E+0
8.377E-1	1.569E+0	0.000E+0
8.492E-1	1.568E+0	0.000E+0
8.610E-1	1.568E+0	0.000E+0
8.731E-1	1.568E+0	0.000E+0
8.856E-1	1.567E+0	0.000E+0
8.984E-1	1.567E+0	0.000E+0
9.116E-1	1.566E+0	0.000E+0
9.253E-1	1.566E+0	0.000E+0
9.393E-1	1.566E+0	0.000E+0
9.537E-1	1.565E+0	0.000E+0
9.686E-1	1.565E+0	0.000E+0
9.840E-1	1.565E+0	0.000E+0
9.999E-1	1.564E+0	0.000E+0
1.016E+0	1.564E+0	0.000E+0
1.033E+0	1.563E+0	0.000E+0
1.051E+0	1.563E+0	0.000E+0
1.069E+0	1.563E+0	0.000E+0
1.088E+0	1.562E+0	0.000E+0
1.107E+0	1.562E+0	0.000E+0
1.127E+0	1.562E+0	0.000E+0
1.148E+0	1.561E+0	0.000E+0
1.170E+0	1.561E+0	0.000E+0
1.192E+0	1.561E+0	0.000E+0
1.216E+0	1.560E+0	0.000E+0
1.240E+0	1.560E+0	0.000E+0
1.265E+0	1.559E+0	0.000E+0
1.292E+0	1.559E+0	0.000E+0
1.319E+0	1.559E+0	0.000E+0
1.348E+0	1.558E+0	0.000E+0
1.378E+0	1.558E+0	0.000E+0
1.409E+0	1.557E+0	0.000E+0
1.442E+0	1.557E+0	0.000E+0
1.476E+0	1.556E+0	0.000E+0
1.512E+0	1.556E+0	0.000E+0
1.550E+0	1.556E+0	0.000E+0
1.590E+0	1.555E+0	0.000E+0
1.631E+0	1.555E+0	0.000E+0
1.675E+0	1.554E+0	0.000E+0
1.722E+0	1.553E+0	0.000E+0
1.771E+0	1.553E+0	0.000E+0
1.823E+0	1.552E+0	0.000E+0
1.879E+0	1.552E+0	0.000E+0
1.937E+0	1.551E+0	0.000E+0
2.000E+0	1.550E+0	0.000E+0
2.066E+0	1.549E+0	0.000E+0
2.138E+0	1.549E+0	0.000E+0
2.214E+0	1.548E+0	0.000E+0
2.296E+0	1.547E+0	0.000E+0
2.384E+0	1.545E+0	0.000E+0
2.480E+0	1.544E+0	0.000E+0
