Material: main / AlSb / Zollner
Optical constants. S. Zollner, C. Lin, E. Schönherr, A. Böhringer, M. Cardona. The dielectric function of AlSb from 1.4 to 5.8 eV determined by spectroscopic ellipsometry, J. Appl. Phys. 66, 383-387 (1989)
Comments: 300 K
wavelength (um)	n	k
0.2138	1.00	2.40
0.2175	1.01	2.42
0.2214	1.04	2.46
0.2254	1.09	2.52
0.2296	1.17	2.58
0.2339	1.26	2.59
0.2384	1.31	2.58
0.2431	1.31	2.59
0.2480	1.30	2.64
0.2530	1.29	2.72
0.2583	1.30	2.84
0.2638	1.33	2.99
0.2695	1.38	3.16
0.2755	1.45	3.39
0.2818	1.59	3.70
0.2883	1.96	4.07
0.2952	2.60	4.22
0.3024	3.15	4.00
0.3100	3.50	3.71
0.3179	3.71	3.40
0.3263	3.81	3.16
0.3351	3.91	2.97
0.3444	3.96	2.81
0.3542	3.95	2.69
0.3647	3.97	2.64
0.3757	4.14	2.69
0.3875	4.51	2.47
0.3999	4.57	2.12
0.4133	4.52	1.97
0.4275	4.66	2.06
0.4428	5.27	1.58
0.4592	5.08	0.92
0.4769	4.81	0.63
0.4959	4.61	0.46
0.5166	4.44	0.33
0.5391	4.31	0.24
0.5636	4.20	0.01
0.5904	4.01	0.006
0.6199	3.90	0.004
0.6525	3.81	0.003
0.6888	3.73	0.002
0.7293	3.66	0.001
0.7749	3.60	0.0003
0.8266	3.54	0.0002
0.8856	3.50	0.0001
