Material: main / Al / Larruquert
Optical constants. 1) J. I. Larruquert, J. A. Méndez, J. A. Aznárez. Optical constants of aluminum films in the extreme ultraviolet interval of 82-77 nm, Appl. Opt. 35, 5692-5697 (1996)2) J. I. Larruquert, J. A. Méndez, J. A. Aznárez. Far-ultraviolet reflectance measurements and optical constants of unoxidized aluminum films, Appl. Opt. 34, 4892-4899 (1995)
Comments: Optical constants are obtained from reflectance measurements versus angle of incidence. Film deposited at room temperature.
Specs: {"n_absolute": true, "wavelength_vacuum": true}
wavelength (um)	n	k
0.0770	0.367	0.047
0.0780	0.339	0.052
0.0790	0.302	0.060
0.0800	0.255	0.075
0.0810	0.207	0.093
0.0820	0.161	0.120
0.0826	0.115	0.138
0.0835	0.092	0.180
0.0868	0.053	0.39
0.0920	0.044	0.56
0.0964	0.038	0.68
0.1048	0.031	0.88
0.1135	0.026	0.97
