Material: main / Al / Rakic-LD
Optical constants. A. D. Rakić, A. B. Djurišic, J. M. Elazar, and M. L. Majewski. Optical properties of metallic films for vertical-cavity optoelectronic devices, Appl. Opt. 37, 5271-5283 (1998)[Calculation script (Python)]
Comments: Fit of experimental data from several sources to Lorentz-Drude (LD) model
Specs: {"n_absolute": true, "wavelength_vacuum": true}
wavelength (um)	n	k
6.1992e-02	6.6397e-01	9.4537e-03
6.3556e-02	6.4210e-01	1.0541e-02
6.5158e-02	6.1828e-01	1.1806e-02
6.6802e-02	5.9221e-01	1.3292e-02
6.8486e-02	5.6353e-01	1.5064e-02
7.0214e-02	5.3172e-01	1.7218e-02
7.1984e-02	4.9612e-01	1.9903e-02
7.3800e-02	4.5576e-01	2.3368e-02
7.5661e-02	4.0917e-01	2.8076e-02
7.7569e-02	3.5389e-01	3.5016e-02
7.9525e-02	2.8532e-01	4.6852e-02
8.1531e-02	1.9402e-01	7.4328e-02
8.3587e-02	9.5549e-02	1.6283e-01
8.5695e-02	6.2015e-02	2.7069e-01
8.7857e-02	5.0882e-02	3.5598e-01
9.0072e-02	4.5600e-02	4.2862e-01
9.2344e-02	4.2707e-02	4.9388e-01
9.4673e-02	4.1061e-02	5.5437e-01
9.7060e-02	4.0170e-02	6.1160e-01
9.9508e-02	3.9786e-02	6.6653e-01
1.0202e-01	3.9771e-02	7.1978e-01
1.0459e-01	4.0040e-02	7.7183e-01
1.0723e-01	4.0542e-02	8.2301e-01
1.0993e-01	4.1241e-02	8.7360e-01
1.1271e-01	4.2115e-02	9.2381e-01
1.1555e-01	4.3149e-02	9.7380e-01
1.1846e-01	4.4332e-02	1.0237e+00
1.2145e-01	4.5659e-02	1.0737e+00
1.2451e-01	4.7126e-02	1.1239e+00
1.2765e-01	4.8732e-02	1.1744e+00
1.3087e-01	5.0477e-02	1.2252e+00
1.3417e-01	5.2365e-02	1.2764e+00
1.3756e-01	5.4398e-02	1.3281e+00
1.4103e-01	5.6580e-02	1.3804e+00
1.4458e-01	5.8917e-02	1.4333e+00
1.4823e-01	6.1415e-02	1.4869e+00
1.5197e-01	6.4081e-02	1.5413e+00
1.5580e-01	6.6924e-02	1.5964e+00
1.5973e-01	6.9951e-02	1.6524e+00
1.6376e-01	7.3174e-02	1.7093e+00
1.6789e-01	7.6602e-02	1.7671e+00
1.7212e-01	8.0246e-02	1.8260e+00
1.7646e-01	8.4120e-02	1.8858e+00
1.8091e-01	8.8235e-02	1.9467e+00
1.8547e-01	9.2606e-02	2.0088e+00
1.9015e-01	9.7247e-02	2.0720e+00
1.9495e-01	1.0217e-01	2.1364e+00
1.9986e-01	1.0740e-01	2.2021e+00
2.0490e-01	1.1295e-01	2.2691e+00
2.1007e-01	1.1884e-01	2.3373e+00
2.1537e-01	1.2508e-01	2.4070e+00
2.2080e-01	1.3170e-01	2.4781e+00
2.2637e-01	1.3871e-01	2.5506e+00
2.3208e-01	1.4613e-01	2.6246e+00
2.3793e-01	1.5399e-01	2.7001e+00
2.4393e-01	1.6229e-01	2.7771e+00
2.5009e-01	1.7106e-01	2.8558e+00
2.5639e-01	1.8033e-01	2.9361e+00
2.6286e-01	1.9009e-01	3.0181e+00
2.6949e-01	2.0037e-01	3.1018e+00
2.7628e-01	2.1119e-01	3.1872e+00
2.8325e-01	2.2256e-01	3.2744e+00
2.9040e-01	2.3448e-01	3.3635e+00
2.9772e-01	2.4699e-01	3.4545e+00
3.0523e-01	2.6008e-01	3.5475e+00
3.1293e-01	2.7380e-01	3.6425e+00
3.2082e-01	2.8815e-01	3.7397e+00
3.2891e-01	3.0319e-01	3.8390e+00
3.3720e-01	3.1894e-01	3.9406e+00
3.4571e-01	3.3549e-01	4.0446e+00
3.5443e-01	3.5289e-01	4.1511e+00
3.6336e-01	3.7126e-01	4.2601e+00
3.7253e-01	3.9069e-01	4.3718e+00
3.8192e-01	4.1133e-01	4.4863e+00
3.9156e-01	4.3332e-01	4.6035e+00
4.0143e-01	4.5683e-01	4.7236e+00
4.1156e-01	4.8206e-01	4.8465e+00
4.2193e-01	5.0920e-01	4.9724e+00
4.3258e-01	5.3845e-01	5.1011e+00
4.4349e-01	5.7004e-01	5.2325e+00
4.5467e-01	6.0417e-01	5.3666e+00
4.6614e-01	6.4104e-01	5.5033e+00
4.7789e-01	6.8086e-01	5.6423e+00
4.8994e-01	7.2377e-01	5.7834e+00
5.0230e-01	7.6990e-01	5.9264e+00
5.1497e-01	8.1933e-01	6.0709e+00
5.2796e-01	8.7207e-01	6.2167e+00
5.4127e-01	9.2804e-01	6.3634e+00
5.5492e-01	9.8710e-01	6.5109e+00
5.6892e-01	1.0490e+00	6.6587e+00
5.8327e-01	1.1134e+00	6.8071e+00
5.9798e-01	1.1801e+00	6.9560e+00
6.1306e-01	1.2489e+00	7.1060e+00
6.2852e-01	1.3198e+00	7.2578e+00
6.4437e-01	1.3937e+00	7.4124e+00
6.6062e-01	1.4720e+00	7.5713e+00
6.7728e-01	1.5581e+00	7.7354e+00
6.9436e-01	1.6573e+00	7.9046e+00
7.1187e-01	1.7775e+00	8.0761e+00
7.2983e-01	1.9291e+00	8.2405e+00
7.4823e-01	2.1205e+00	8.3769e+00
7.6710e-01	2.3463e+00	8.4497e+00
7.8645e-01	2.5667e+00	8.4194e+00
8.0628e-01	2.7026e+00	8.2847e+00
8.2662e-01	2.6882e+00	8.1165e+00
8.4746e-01	2.5362e+00	8.0137e+00
8.6884e-01	2.3181e+00	8.0253e+00
8.9075e-01	2.0977e+00	8.1412e+00
9.1321e-01	1.9060e+00	8.3294e+00
9.3624e-01	1.7498e+00	8.5624e+00
9.5986e-01	1.6261e+00	8.8221e+00
9.8406e-01	1.5290e+00	9.0983e+00
1.0089e+00	1.4534e+00	9.3855e+00
1.0343e+00	1.3949e+00	9.6807e+00
1.0604e+00	1.3503e+00	9.9826e+00
1.0872e+00	1.3172e+00	1.0290e+01
1.1146e+00	1.2937e+00	1.0604e+01
1.1427e+00	1.2786e+00	1.0923e+01
1.1715e+00	1.2708e+00	1.1247e+01
1.2010e+00	1.2695e+00	1.1577e+01
1.2313e+00	1.2740e+00	1.1913e+01
1.2624e+00	1.2839e+00	1.2255e+01
1.2942e+00	1.2987e+00	1.2604e+01
1.3269e+00	1.3183e+00	1.2958e+01
1.3603e+00	1.3423e+00	1.3320e+01
1.3946e+00	1.3706e+00	1.3688e+01
1.4298e+00	1.4031e+00	1.4063e+01
1.4659e+00	1.4395e+00	1.4446e+01
1.5028e+00	1.4800e+00	1.4836e+01
1.5407e+00	1.5243e+00	1.5234e+01
1.5796e+00	1.5725e+00	1.5639e+01
1.6194e+00	1.6246e+00	1.6053e+01
1.6603e+00	1.6806e+00	1.6475e+01
1.7021e+00	1.7405e+00	1.6905e+01
1.7451e+00	1.8044e+00	1.7344e+01
1.7891e+00	1.8723e+00	1.7792e+01
1.8342e+00	1.9443e+00	1.8248e+01
1.8805e+00	2.0204e+00	1.8714e+01
1.9279e+00	2.1007e+00	1.9190e+01
1.9765e+00	2.1854e+00	1.9675e+01
2.0264e+00	2.2745e+00	2.0170e+01
2.0775e+00	2.3680e+00	2.0675e+01
2.1299e+00	2.4662e+00	2.1190e+01
2.1836e+00	2.5691e+00	2.1715e+01
2.2386e+00	2.6769e+00	2.2251e+01
2.2951e+00	2.7896e+00	2.2797e+01
2.3530e+00	2.9074e+00	2.3354e+01
2.4123e+00	3.0304e+00	2.3922e+01
2.4732e+00	3.1587e+00	2.4502e+01
2.5355e+00	3.2925e+00	2.5093e+01
2.5995e+00	3.4318e+00	2.5695e+01
2.6650e+00	3.5768e+00	2.6309e+01
2.7322e+00	3.7277e+00	2.6934e+01
2.8012e+00	3.8845e+00	2.7572e+01
2.8718e+00	4.0474e+00	2.8222e+01
2.9442e+00	4.2164e+00	2.8884e+01
3.0185e+00	4.3917e+00	2.9559e+01
3.0946e+00	4.5735e+00	3.0246e+01
3.1726e+00	4.7617e+00	3.0946e+01
3.2527e+00	4.9566e+00	3.1659e+01
3.3347e+00	5.1582e+00	3.2385e+01
3.4188e+00	5.3665e+00	3.3124e+01
3.5050e+00	5.5818e+00	3.3877e+01
3.5934e+00	5.8040e+00	3.4644e+01
3.6840e+00	6.0333e+00	3.5425e+01
3.7769e+00	6.2697e+00	3.6219e+01
3.8722e+00	6.5132e+00	3.7028e+01
3.9699e+00	6.7640e+00	3.7852e+01
4.0700e+00	7.0221e+00	3.8690e+01
4.1726e+00	7.2874e+00	3.9543e+01
4.2779e+00	7.5601e+00	4.0412e+01
4.3857e+00	7.8402e+00	4.1296e+01
4.4963e+00	8.1278e+00	4.2196e+01
4.6097e+00	8.4228e+00	4.3113e+01
4.7260e+00	8.7253e+00	4.4046e+01
4.8452e+00	9.0354e+00	4.4996e+01
4.9674e+00	9.3530e+00	4.5964e+01
5.0927e+00	9.6783e+00	4.6950e+01
5.2211e+00	1.0011e+01	4.7954e+01
5.3528e+00	1.0352e+01	4.8976e+01
5.4878e+00	1.0701e+01	5.0018e+01
5.6262e+00	1.1057e+01	5.1080e+01
5.7681e+00	1.1422e+01	5.2163e+01
5.9135e+00	1.1795e+01	5.3266e+01
6.0627e+00	1.2176e+01	5.4392e+01
6.2156e+00	1.2566e+01	5.5540e+01
6.3723e+00	1.2964e+01	5.6710e+01
6.5330e+00	1.3372e+01	5.7905e+01
6.6978e+00	1.3789e+01	5.9124e+01
6.8667e+00	1.4216e+01	6.0369e+01
7.0399e+00	1.4654e+01	6.1639e+01
7.2174e+00	1.5101e+01	6.2937e+01
7.3995e+00	1.5560e+01	6.4262e+01
7.5861e+00	1.6031e+01	6.5615e+01
7.7774e+00	1.6514e+01	6.6998e+01
7.9735e+00	1.7010e+01	6.8411e+01
8.1746e+00	1.7520e+01	6.9854e+01
8.3808e+00	1.8045e+01	7.1330e+01
8.5921e+00	1.8585e+01	7.2837e+01
8.8088e+00	1.9141e+01	7.4378e+01
9.0310e+00	1.9714e+01	7.5953e+01
9.2588e+00	2.0306e+01	7.7562e+01
9.4923e+00	2.0917e+01	7.9206e+01
9.7317e+00	2.1548e+01	8.0886e+01
9.9771e+00	2.2201e+01	8.2602e+01
1.0229e+01	2.2877e+01	8.4355e+01
1.0487e+01	2.3578e+01	8.6145e+01
1.0751e+01	2.4303e+01	8.7973e+01
1.1022e+01	2.5056e+01	8.9838e+01
1.1300e+01	2.5836e+01	9.1741e+01
1.1585e+01	2.6646e+01	9.3683e+01
1.1877e+01	2.7487e+01	9.5663e+01
1.2177e+01	2.8360e+01	9.7682e+01
1.2484e+01	2.9267e+01	9.9739e+01
1.2799e+01	3.0209e+01	1.0183e+02
1.3122e+01	3.1187e+01	1.0397e+02
1.3453e+01	3.2204e+01	1.0614e+02
1.3792e+01	3.3260e+01	1.0835e+02
1.4140e+01	3.4356e+01	1.1059e+02
1.4496e+01	3.5494e+01	1.1287e+02
1.4862e+01	3.6676e+01	1.1519e+02
1.5237e+01	3.7902e+01	1.1754e+02
1.5621e+01	3.9174e+01	1.1993e+02
1.6015e+01	4.0493e+01	1.2235e+02
1.6419e+01	4.1859e+01	1.2481e+02
1.6833e+01	4.3275e+01	1.2729e+02
1.7257e+01	4.4741e+01	1.2981e+02
1.7693e+01	4.6258e+01	1.3236e+02
1.8139e+01	4.7826e+01	1.3494e+02
1.8596e+01	4.9447e+01	1.3754e+02
1.9065e+01	5.1122e+01	1.4018e+02
1.9546e+01	5.2850e+01	1.4283e+02
2.0039e+01	5.4633e+01	1.4552e+02
2.0545e+01	5.6471e+01	1.4823e+02
2.1063e+01	5.8364e+01	1.5096e+02
2.1594e+01	6.0313e+01	1.5371e+02
2.2138e+01	6.2318e+01	1.5648e+02
2.2697e+01	6.4379e+01	1.5927e+02
2.3269e+01	6.6496e+01	1.6208e+02
2.3856e+01	6.8669e+01	1.6491e+02
2.4458e+01	7.0898e+01	1.6775e+02
2.5075e+01	7.3183e+01	1.7061e+02
2.5707e+01	7.5524e+01	1.7348e+02
2.6355e+01	7.7920e+01	1.7637e+02
2.7020e+01	8.0370e+01	1.7927e+02
2.7701e+01	8.2876e+01	1.8218e+02
2.8400e+01	8.5435e+01	1.8509e+02
2.9116e+01	8.8048e+01	1.8802e+02
2.9850e+01	9.0713e+01	1.9096e+02
3.0603e+01	9.3431e+01	1.9391e+02
3.1375e+01	9.6201e+01	1.9686e+02
3.2166e+01	9.9021e+01	1.9983e+02
3.2978e+01	1.0189e+02	2.0280e+02
3.3809e+01	1.0481e+02	2.0577e+02
3.4662e+01	1.0778e+02	2.0876e+02
3.5536e+01	1.1079e+02	2.1175e+02
3.6432e+01	1.1386e+02	2.1474e+02
3.7351e+01	1.1697e+02	2.1774e+02
3.8293e+01	1.2012e+02	2.2075e+02
3.9259e+01	1.2332e+02	2.2377e+02
4.0249e+01	1.2656e+02	2.2679e+02
4.1264e+01	1.2984e+02	2.2982e+02
4.2305e+01	1.3317e+02	2.3286e+02
4.3372e+01	1.3654e+02	2.3590e+02
4.4466e+01	1.3995e+02	2.3896e+02
4.5587e+01	1.4340e+02	2.4202e+02
4.6737e+01	1.4689e+02	2.4509e+02
4.7915e+01	1.5042e+02	2.4817e+02
4.9124e+01	1.5398e+02	2.5127e+02
5.0363e+01	1.5759e+02	2.5437e+02
5.1633e+01	1.6123e+02	2.5749e+02
5.2935e+01	1.6490e+02	2.6062e+02
5.4270e+01	1.6862e+02	2.6376e+02
5.5639e+01	1.7237e+02	2.6692e+02
5.7042e+01	1.7616e+02	2.7009e+02
5.8480e+01	1.7998e+02	2.7328e+02
5.9955e+01	1.8383e+02	2.7649e+02
6.1467e+01	1.8773e+02	2.7972e+02
6.3018e+01	1.9165e+02	2.8297e+02
6.4607e+01	1.9562e+02	2.8623e+02
6.6236e+01	1.9961e+02	2.8952e+02
6.7907e+01	2.0365e+02	2.9284e+02
6.9619e+01	2.0771e+02	2.9617e+02
7.1375e+01	2.1181e+02	2.9953e+02
7.3175e+01	2.1595e+02	3.0292e+02
7.5021e+01	2.2012e+02	3.0634e+02
7.6913e+01	2.2433e+02	3.0978e+02
7.8852e+01	2.2858e+02	3.1325e+02
8.0841e+01	2.3286e+02	3.1676e+02
8.2880e+01	2.3717e+02	3.2029e+02
8.4970e+01	2.4152e+02	3.2386e+02
8.7113e+01	2.4591e+02	3.2746e+02
8.9310e+01	2.5034e+02	3.3109e+02
9.1562e+01	2.5481e+02	3.3477e+02
9.3871e+01	2.5931e+02	3.3847e+02
9.6239e+01	2.6385e+02	3.4222e+02
9.8666e+01	2.6844e+02	3.4601e+02
1.0115e+02	2.7306e+02	3.4983e+02
1.0371e+02	2.7772e+02	3.5370e+02
1.0632e+02	2.8243e+02	3.5761e+02
1.0900e+02	2.8717e+02	3.6156e+02
1.1175e+02	2.9196e+02	3.6556e+02
1.1457e+02	2.9679e+02	3.6961e+02
1.1746e+02	3.0167e+02	3.7369e+02
1.2042e+02	3.0659e+02	3.7783e+02
1.2346e+02	3.1155e+02	3.8202e+02
1.2657e+02	3.1656e+02	3.8625e+02
1.2976e+02	3.2162e+02	3.9054e+02
1.3304e+02	3.2672e+02	3.9488e+02
1.3639e+02	3.3187e+02	3.9927e+02
1.3983e+02	3.3707e+02	4.0371e+02
1.4336e+02	3.4232e+02	4.0821e+02
1.4697e+02	3.4763e+02	4.1276e+02
1.5068e+02	3.5298e+02	4.1737e+02
1.5448e+02	3.5838e+02	4.2204e+02
1.5838e+02	3.6384e+02	4.2677e+02
1.6237e+02	3.6935e+02	4.3156e+02
1.6647e+02	3.7492e+02	4.3640e+02
1.7066e+02	3.8054e+02	4.4131e+02
1.7497e+02	3.8622e+02	4.4628e+02
1.7938e+02	3.9196e+02	4.5132e+02
1.8390e+02	3.9775e+02	4.5642e+02
1.8854e+02	4.0361e+02	4.6158e+02
1.9330e+02	4.0952e+02	4.6682e+02
1.9817e+02	4.1550e+02	4.7212e+02
2.0317e+02	4.2154e+02	4.7748e+02
2.0829e+02	4.2764e+02	4.8292e+02
2.1355e+02	4.3380e+02	4.8843e+02
2.1893e+02	4.4003e+02	4.9401e+02
2.2445e+02	4.4633e+02	4.9966e+02
2.3012e+02	4.5269e+02	5.0539e+02
2.3592e+02	4.5913e+02	5.1119e+02
2.4187e+02	4.6563e+02	5.1707e+02
2.4797e+02	4.7220e+02	5.2302e+02
