Material: main / O2 / Smith
Optical constants. P. L. Smith, M. C. E. Huber, W. H. Parkinson. Refractivities of H2, He, O2, CO, and Kr for 168≤λ≤288 nm Phys Rev. A 13, 199-203 (1976)
Comments: Standard conditions: 0 °C (273.15 K), 760 torr (101.325 kPa).
Specs: {"n_absolute": true, "wavelength_vacuum": true, "temperature": "0 °C", "pressure": "101325 Pa"}
wavelength (um)	n
0.18430	1.00037920
0.19185	1.00036120
0.19776	1.00034820
0.19792	1.00034790
0.19806	1.00034760
0.19832	1.00034710
0.19864	1.00034670
0.19890	1.00034620
0.20588	1.00033610
0.21248	1.00032850
0.22087	1.00032080
0.22116	1.00032060
0.22174	1.00032010
0.24359	1.00030650
0.25077	1.00030330
0.25151	1.00030300
0.25169	1.00030290
0.25200	1.00030270
0.25249	1.00030270
0.25293	1.00030240
0.26321	1.00029860
0.28824	1.00029160
