Material: main / BaB2O4 / Tamosauskas-o
Optical constants. 1) G. Tamošauskas, G. Beresnevičius, D. Gadonas, A. Dubietis. Transmittance and phase matching of BBO crystal in the 3−5 μm range and its application for the characterization of mid-infrared laser pulses, Opt. Mater. Express 8, 1410-1418 (2018)2) G. Tamošauskas. β-barium borate (BBO) absorption in the 0.188-6.22 μm range, arXiv:2111.01212 [physics.optics] (2021) (Numerical data kindly provided by Gintaras Tamošauskas)
Comments: Beta barium borate (ß-BaB2O4, BBO). Ordinary ray (o).
Dispersion formula 2, range 0.188 5.2 um, coefficients 0 0.90291 0.003926 0.83155 0.018786 0.76536 60.01
wavelength (um)	k
1.8800E-01	4.5142E-05
1.8940E-01	2.7478E-05
1.9080E-01	1.6185E-05
1.9220E-01	9.3124E-06
1.9360E-01	5.5079E-06
1.9500E-01	3.3461E-06
1.9640E-01	2.0093E-06
1.9780E-01	1.1977E-06
1.9920E-01	7.3213E-07
2.0060E-01	4.5526E-07
2.0200E-01	3.0624E-07
2.0340E-01	2.2387E-07
2.0480E-01	1.7241E-07
2.0620E-01	1.3799E-07
2.0760E-01	1.1535E-07
2.0900E-01	1.0082E-07
2.1040E-01	9.1936E-08
2.1180E-01	8.6403E-08
2.1320E-01	8.1945E-08
2.1460E-01	7.7534E-08
2.1600E-01	7.3191E-08
2.1740E-01	6.8969E-08
2.1880E-01	6.4919E-08
2.2020E-01	6.1096E-08
2.2160E-01	5.7532E-08
2.2300E-01	5.4224E-08
2.2440E-01	5.1161E-08
2.2580E-01	4.8337E-08
2.2720E-01	4.5741E-08
2.2860E-01	4.3356E-08
2.3000E-01	4.1165E-08
2.3140E-01	3.9141E-08
2.3280E-01	3.7264E-08
2.3420E-01	3.5511E-08
2.3560E-01	3.3856E-08
2.3700E-01	3.2281E-08
2.3840E-01	3.0779E-08
2.3980E-01	2.9351E-08
2.4120E-01	2.7998E-08
2.4260E-01	2.6721E-08
2.4400E-01	2.5516E-08
2.4540E-01	2.4385E-08
2.4680E-01	2.3328E-08
2.4820E-01	2.2344E-08
2.4960E-01	2.1430E-08
2.6000E-01	1.6381E-08
2.7400E-01	1.1831E-08
2.8800E-01	8.6400E-09
3.0200E-01	6.6063E-09
3.1600E-01	5.1173E-09
3.3000E-01	3.8522E-09
3.4400E-01	3.0252E-09
3.5800E-01	2.4183E-09
3.7200E-01	1.9287E-09
3.8600E-01	1.5746E-09
4.0000E-01	1.3359E-09
4.1400E-01	1.1678E-09
4.2800E-01	1.0306E-09
4.4200E-01	9.1936E-10
4.5600E-01	8.3181E-10
4.7000E-01	7.6434E-10
4.8400E-01	7.1219E-10
4.9800E-01	6.6970E-10
5.1200E-01	6.3116E-10
5.2600E-01	5.9580E-10
5.4000E-01	5.6482E-10
5.5400E-01	5.3948E-10
5.6800E-01	5.1989E-10
5.8200E-01	5.0422E-10
5.9600E-01	4.9012E-10
6.1000E-01	4.7538E-10
6.2400E-01	4.5972E-10
6.3800E-01	4.4419E-10
6.5200E-01	4.2992E-10
6.6600E-01	4.1757E-10
6.8000E-01	4.0675E-10
6.9400E-01	3.9690E-10
7.0800E-01	3.8742E-10
7.2200E-01	3.7811E-10
7.3600E-01	3.6924E-10
7.5000E-01	3.6111E-10
7.6400E-01	3.5397E-10
7.7800E-01	3.4780E-10
7.9200E-01	3.4251E-10
8.0600E-01	3.3799E-10
8.2000E-01	3.3429E-10
8.3400E-01	3.3169E-10
8.4800E-01	3.3044E-10
8.6200E-01	3.3071E-10
8.7600E-01	3.3233E-10
8.9000E-01	3.3510E-10
9.0400E-01	3.3878E-10
9.1800E-01	3.4317E-10
9.3200E-01	3.4800E-10
9.4600E-01	3.5304E-10
9.6000E-01	3.5801E-10
9.7400E-01	3.6278E-10
9.8800E-01	3.6749E-10
1.0020E+00	3.7234E-10
1.0160E+00	3.7744E-10
1.0300E+00	3.8270E-10
1.0440E+00	3.8802E-10
1.0580E+00	3.9331E-10
1.0720E+00	3.9855E-10
1.0860E+00	4.0375E-10
1.1000E+00	4.0895E-10
1.1140E+00	4.1422E-10
1.1280E+00	4.1963E-10
1.1420E+00	4.2524E-10
1.1560E+00	4.3115E-10
1.1700E+00	4.3740E-10
1.1840E+00	4.4389E-10
1.1980E+00	4.5015E-10
1.2120E+00	4.5586E-10
1.2260E+00	4.6184E-10
1.2400E+00	4.6938E-10
1.2540E+00	4.7977E-10
1.2680E+00	4.9392E-10
1.2820E+00	5.1257E-10
1.2960E+00	5.3653E-10
1.3100E+00	5.6660E-10
1.3240E+00	6.0358E-10
1.3380E+00	6.4800E-10
1.3520E+00	7.0027E-10
1.3660E+00	7.6079E-10
1.3800E+00	8.3004E-10
1.3940E+00	9.1057E-10
1.4080E+00	1.0072E-09
1.4220E+00	1.1252E-09
1.4360E+00	1.2700E-09
1.4500E+00	1.4479E-09
1.4640E+00	1.6654E-09
1.4780E+00	1.9296E-09
1.4920E+00	2.2476E-09
1.5060E+00	2.6269E-09
1.5200E+00	3.0756E-09
1.5340E+00	3.6030E-09
1.5480E+00	4.2259E-09
1.5620E+00	4.9648E-09
1.5760E+00	5.8415E-09
1.5900E+00	6.8991E-09
1.6040E+00	8.1994E-09
1.6180E+00	9.8069E-09
1.6320E+00	1.1788E-08
1.6460E+00	1.4213E-08
1.6600E+00	1.7171E-08
1.6740E+00	2.1074E-08
1.6880E+00	2.6563E-08
1.7020E+00	3.3885E-08
1.7160E+00	4.3147E-08
1.7300E+00	5.6219E-08
1.7440E+00	7.5480E-08
1.7580E+00	1.0061E-07
1.7720E+00	1.3069E-07
1.7860E+00	1.5749E-07
1.8000E+00	1.6112E-07
1.8140E+00	1.4463E-07
1.8280E+00	1.2941E-07
1.8420E+00	1.3818E-07
1.8560E+00	1.7602E-07
1.8700E+00	2.3414E-07
1.8840E+00	2.9866E-07
1.8980E+00	3.5988E-07
1.9120E+00	4.2333E-07
1.9260E+00	4.8202E-07
1.9400E+00	5.1461E-07
1.9540E+00	5.1543E-07
1.9680E+00	4.9396E-07
1.9820E+00	4.7976E-07
1.9960E+00	5.0840E-07
2.0100E+00	5.7566E-07
2.0240E+00	6.7056E-07
2.0380E+00	7.9031E-07
2.0520E+00	9.1121E-07
2.0660E+00	1.0132E-06
2.0800E+00	1.1099E-06
2.0940E+00	1.1431E-06
2.1080E+00	1.1464E-06
2.1220E+00	1.2288E-06
2.1360E+00	1.3877E-06
2.1500E+00	1.6419E-06
2.1640E+00	2.1166E-06
2.1780E+00	2.8622E-06
2.1920E+00	3.7556E-06
2.2060E+00	5.0403E-06
2.2200E+00	6.6524E-06
2.2340E+00	8.3388E-06
2.2480E+00	9.4665E-06
2.2620E+00	1.0776E-05
2.2760E+00	1.2633E-05
2.2900E+00	1.4968E-05
2.3040E+00	1.5094E-05
2.3180E+00	1.6206E-05
2.3320E+00	1.8110E-05
2.3460E+00	1.9813E-05
2.3600E+00	1.8957E-05
2.3740E+00	1.8963E-05
2.3880E+00	2.0200E-05
2.4020E+00	1.7899E-05
2.4160E+00	1.0869E-05
2.4300E+00	8.3019E-06
2.4440E+00	8.6160E-06
2.4580E+00	9.6244E-06
2.4720E+00	1.0572E-05
2.4860E+00	1.1695E-05
2.5000E+00	1.2683E-05
2.5140E+00	1.3984E-05
2.5280E+00	1.5041E-05
2.5420E+00	1.6454E-05
2.5560E+00	1.7818E-05
2.5700E+00	1.9737E-05
2.5840E+00	2.1901E-05
2.5980E+00	2.4501E-05
2.6120E+00	2.6387E-05
2.6260E+00	2.7682E-05
2.6400E+00	2.9752E-05
2.6540E+00	3.3443E-05
2.6680E+00	3.6446E-05
2.6820E+00	3.4716E-05
2.6960E+00	2.8740E-05
2.7100E+00	2.6245E-05
2.7240E+00	2.6481E-05
2.7380E+00	2.8939E-05
2.7520E+00	3.1755E-05
2.7660E+00	3.4903E-05
2.7800E+00	3.8431E-05
2.7940E+00	4.1157E-05
2.8080E+00	4.3623E-05
2.8220E+00	4.6737E-05
2.8360E+00	4.6332E-05
2.8500E+00	4.5883E-05
2.8640E+00	4.6968E-05
2.8780E+00	5.0754E-05
2.8920E+00	5.6678E-05
2.9060E+00	6.0558E-05
2.9200E+00	6.6173E-05
2.9340E+00	6.9813E-05
2.9480E+00	6.9466E-05
2.9620E+00	6.3531E-05
2.9760E+00	6.6602E-05
2.9900E+00	7.2901E-05
3.0040E+00	7.2043E-05
3.0180E+00	7.7532E-05
3.0320E+00	8.7741E-05
3.0460E+00	9.7803E-05
3.0600E+00	1.0464E-04
3.0740E+00	1.0924E-04
3.0880E+00	1.0445E-04
3.1020E+00	1.1015E-04
3.1160E+00	9.9664E-05
3.1300E+00	8.8726E-05
3.1440E+00	9.4415E-05
3.1580E+00	1.0560E-04
3.1720E+00	1.1186E-04
3.1860E+00	1.2169E-04
3.2000E+00	1.4205E-04
3.2140E+00	1.6836E-04
3.2280E+00	2.0106E-04
3.2420E+00	2.4832E-04
3.2560E+00	3.1564E-04
3.2700E+00	4.0977E-04
3.2840E+00	5.0717E-04
3.2980E+00	6.2693E-04
3.3120E+00	7.2345E-04
3.3260E+00	8.0739E-04
3.3400E+00	9.7507E-04
3.3540E+00	1.1805E-03
3.3680E+00	1.3689E-03
3.3820E+00	1.6467E-03
3.3960E+00	1.8654E-03
3.4100E+00	2.1080E-03
3.4240E+00	2.3010E-03
3.4380E+00	2.4038E-03
3.4520E+00	2.5524E-03
3.4660E+00	2.9347E-03
3.4800E+00	3.2592E-03
3.4940E+00	3.0741E-03
3.5080E+00	2.4879E-03
3.5220E+00	2.2299E-03
3.5360E+00	2.1937E-03
3.5500E+00	2.2017E-03
3.5640E+00	2.2784E-03
3.5780E+00	2.3683E-03
3.5920E+00	2.3919E-03
3.6060E+00	2.3473E-03
3.6200E+00	1.9453E-03
3.6340E+00	1.2540E-03
3.6480E+00	9.7610E-04
3.6620E+00	8.3140E-04
3.6760E+00	8.1419E-04
3.6900E+00	8.5182E-04
3.7040E+00	9.2185E-04
3.7180E+00	1.0082E-03
3.7320E+00	9.9329E-04
3.7460E+00	9.0806E-04
3.7600E+00	8.8354E-04
3.7740E+00	9.1488E-04
3.7880E+00	9.4528E-04
3.8020E+00	9.8448E-04
3.8160E+00	1.0142E-03
3.8300E+00	1.0628E-03
3.8440E+00	1.1147E-03
3.8580E+00	1.1894E-03
3.8720E+00	1.2383E-03
3.8860E+00	1.2636E-03
3.9000E+00	1.3417E-03
3.9140E+00	1.5184E-03
3.9280E+00	1.7792E-03
3.9420E+00	2.1062E-03
3.9560E+00	2.5353E-03
3.9700E+00	3.1433E-03
3.9840E+00	3.8076E-03
3.9980E+00	4.2308E-03
4.0120E+00	4.5971E-03
4.0260E+00	4.9415E-03
4.0400E+00	4.9532E-03
4.0540E+00	4.9233E-03
4.0680E+00	4.8416E-03
4.0820E+00	4.7650E-03
4.0960E+00	4.7494E-03
4.1100E+00	4.6139E-03
4.1240E+00	4.3644E-03
4.1380E+00	4.4797E-03
4.1520E+00	4.9647E-03
4.1660E+00	5.5301E-03
4.1800E+00	5.6169E-03
4.1940E+00	5.2802E-03
4.2080E+00	5.2315E-03
4.2220E+00	5.3790E-03
4.2360E+00	5.6914E-03
4.2500E+00	6.1073E-03
4.2640E+00	6.6072E-03
4.2780E+00	6.3150E-03
4.2920E+00	5.4296E-03
4.3060E+00	4.4642E-03
4.3200E+00	3.9493E-03
4.3340E+00	3.9669E-03
4.3480E+00	4.1261E-03
4.3620E+00	3.8638E-03
4.3760E+00	3.8076E-03
4.3900E+00	4.2274E-03
4.4040E+00	4.0415E-03
4.4180E+00	2.6187E-03
4.4320E+00	1.8248E-03
4.4460E+00	1.4302E-03
4.4600E+00	1.2387E-03
4.4740E+00	1.1131E-03
4.4880E+00	1.0477E-03
4.5020E+00	1.0230E-03
4.5160E+00	1.0077E-03
4.5300E+00	1.0035E-03
4.5440E+00	1.0063E-03
4.5580E+00	1.0298E-03
4.5720E+00	1.0869E-03
4.5860E+00	1.1633E-03
4.6000E+00	1.2081E-03
4.6140E+00	1.2071E-03
4.6280E+00	1.1281E-03
4.6420E+00	1.0616E-03
4.6560E+00	1.0271E-03
4.6700E+00	1.0962E-03
4.6840E+00	1.2238E-03
4.6980E+00	1.3813E-03
4.7120E+00	1.5979E-03
4.7260E+00	1.8268E-03
4.7400E+00	2.1017E-03
4.7540E+00	2.6952E-03
4.7680E+00	3.3643E-03
4.7820E+00	4.5060E-03
4.7960E+00	6.3267E-03
4.8100E+00	8.4159E-03
4.8240E+00	8.8393E-03
4.8380E+00	8.8649E-03
4.8520E+00	8.8906E-03
4.8660E+00	8.9162E-03
4.8800E+00	8.9419E-03
4.8940E+00	8.9675E-03
4.9080E+00	8.9932E-03
4.9220E+00	9.0188E-03
4.9360E+00	9.0445E-03
4.9500E+00	9.0701E-03
4.9640E+00	9.0958E-03
4.9780E+00	9.1214E-03
4.9920E+00	8.6279E-03
5.0060E+00	7.8661E-03
5.0200E+00	7.5977E-03
5.0340E+00	7.6942E-03
5.0480E+00	7.8735E-03
5.0620E+00	7.6991E-03
5.0760E+00	5.3449E-03
5.0900E+00	3.4980E-03
5.1040E+00	2.6507E-03
5.1180E+00	2.3193E-03
5.1320E+00	2.2647E-03
5.1460E+00	2.6871E-03
5.1600E+00	3.6427E-03
5.1740E+00	4.4801E-03
5.1880E+00	4.2210E-03
