Material: main / VN / Pfluger
Optical constants. 1) J. Pflüger, J. Fink. Determination of optical constants by high-energy, electron-energy-loss spectroscopy (EELS), in Handbook of optical constants of solids II, Edward D. Palik, ed. Academic Press, 1991. pp. 293-3102) J. Pflüger, J. Fink, W. Weber, K. P. Bohnen, G. Crecelius. Dielectric properties of TiCx, TiNx, VCx, and VNx from 1.5 to 40 eV determined by electron-energy-loss spectroscopy, Phys. Rev. B 30, 1155-1163 (1984)
Comments: VN1.0. Room temperature.
wavelength (um)	n	k
0.03107	8.33E-1	6.71E-2
0.03179	8.23E-1	6.49E-2
0.03263	8.05E-1	7.22E-2
0.03351	7.88E-1	7.90E-2
0.03444	7.72E-1	9.26E-2
0.03542	7.58E-1	1.06E-1
0.03646	7.41E-1	1.22E-1
0.03757	7.27E-1	1.40E-1
0.03874	7.12E-1	1.62E-1
0.03999	6.96E-1	1.86E-1
0.04133	6.83E-1	2.09E-1
0.04275	6.65E-1	2.35E-1
0.04428	6.44E-1	2.70E-1
0.04592	6.28E-1	3.18E-1
0.04768	6.19E-1	3.81E-1
0.04959	6.34E-1	4.43E-1
0.05166	6.63E-1	4.95E-1
0.05390	6.95E-1	5.30E-1
0.05635	7.14E-1	5.60E-1
0.05904	7.36E-1	5.98E-1
0.06199	7.59E-1	6.35E-1
0.06525	7.82E-1	6.67E-1
0.06888	7.97E-1	6.91E-1
0.07293	8.03E-1	7.34E-1
0.07749	8.29E-1	8.06E-1
0.08265	8.73E-1	8.65E-1
0.08856	9.22E-1	9.02E-1
0.09537	9.73E-1	9.24E-1
0.1033	9.31E-1	9.46E-1
0.1078	9.03E-1	1.00E0
0.1127	8.96E-1	1.10E0
0.1181	9.22E-1	1.20E0
0.1240	9.82E-1	1.31E0
0.1305	1.07E0	1.39E0
0.1378	1.17E0	1.46E0
0.1459	1.25E0	1.51E0
0.1550	1.36E0	1.57E0
0.1653	1.46E0	1.60E0
0.1771	1.56E0	1.65E0
0.1907	1.66E0	1.68E0
0.2066	1.82E0	1.74E0
0.2254	1.98E0	1.70E0
0.2480	2.10E0	1.64E0
0.2755	2.19E0	1.56E0
0.3100	2.20E0	1.54E0
0.3542	2.18E0	1.58E0
0.4133	2.13E0	1.70E0
0.4959	2.17E0	1.98E0
0.6199	2.35E0	2.47E0
0.8266	2.73E0	2.92E0
1.2399	3.19E0	3.66E0
2.4797	4.23E0	6.13E0
