Material: main / Sn / Golovashkin-78K
Optical constants. 1) A. I. Golovashkin and G. P. Motulevich. Optical and electrical properties of tin, Sov. Phys. JETP 19, 310-317 (1964)2) A. I. Golovashkin and G. P. Motulevich. Optical properties of tin at helium temperaturs, Sov. Phys. JETP 20, 44-49 (1965)
Comments: 78 K (-195.15 Â°C)
Specs: {"temperature": "78 K"}
wavelength (um)	n	k
0.73	2.22	6.25
0.8	2.25	6.48
0.9	3.04	7.28
1.0	3.97	6.94
1.1	4.05	6.60
1.15	3.81	6.53
1.2	3.50	6.51
1.3	2.98	6.79
1.4	2.48	7.36
1.5	2.08	8.04
1.7	1.74	9.34
2.0	1.64	11.4
2.5	1.69	14.6
3.0	1.88	18.0
4.0	2.46	24.2
5.0	3.75	29.7
6.0	4.97	35.5
7.0	6.51	41.4
8.0	8.17	47.0
9.0	10.0	51.7
10	12.4	55.7
11	15.7	59.8
12	18.2	63.8
