Material: main / Sn / Golovashkin-293K
Optical constants. A. I. Golovashkin and G. P. Motulevich. Optical and electrical properties of tin, Sov. Phys. JETP 19, 310-317 (1964)
Comments: 293 K (19.85 Â°C)
Specs: {"temperature": "293 K"}
wavelength (um)	n	k
0.73	2.16	6.35
0.8	2.38	6.68
0.9	2.94	7.28
1.0	3.46	7.40
1.1	3.68	7.50
1.15	3.75	7.58
1.2	3.74	7.68
1.3	3.65	7.92
1.4	3.46	8.26
1.5	3.29	8.72
1.7	3.12	9.92
2.0	3.09	11.8
2.5	3.62	14.8
3.0	4.40	17.8
4.0	6.18	23.2
5.0	8.49	28.5
6.0	11.0	33.1
7.0	13.8	37.1
8.0	16.6	40.6
9.0	19.3	43.8
10	22.0	46.4
11	24.8	49.0
12	27.8	51.6
