Material: main / Tm / Vidal-Dasilva
Optical constants. M. Vidal-Dasilva, M. Fernández-Perea, J. A. Aznárez, J. I. Larruquert, J. A. Méndez, L. Poletto, A. M. Malvezzi, A. Giglia, and S. Nannarone. Transmittance and optical constants of Tm films in the 2.75-1600 eV spectral range, J. Appl. Phys. 105, 103110 (2009) (Numerical data kindly provided by Juan Larruquert)
Comments: Density: 9.33 g/cm3. Film deposited at room temperature.
Specs: {"n_absolute": true, "wavelength_vacuum": true}
wavelength (um)	n	k
0.00077478	0.99975387	0.000295
0.000776006	0.99974141	0.000296
0.000777236	0.99974834	0.000286
0.00077847	0.99972638	0.000278
0.000779707	0.99973968	0.000298
0.000780949	0.99974095	0.00029
0.000782194	0.9997424	0.000293
0.000783444	0.99973819	0.000306
0.000784697	0.99974919	0.000304
0.000785955	0.99974246	0.000288
0.000787217	0.9997453	0.000311
0.000788482	0.99976444	0.000289
0.000789752	0.99976022	0.000288
0.000791026	0.99976067	0.000282
0.000792303	0.99975646	0.00029
0.000793585	0.99977282	0.000279
0.000794872	0.99975814	0.000278
0.000796162	0.99975279	0.000278
0.000797457	0.99975364	0.000292
0.000798755	0.99977481	0.000298
0.000800058	0.99977519	0.000285
0.000801366	0.99978396	0.00028
0.000802677	0.99978099	0.000278
0.000803993	0.99979377	0.000269
0.000805313	0.99978595	0.000256
0.000806638	0.9997771	0.000251
0.000807967	0.99976826	0.000258
0.0008093	0.99977784	0.000259
0.000810637	0.99977654	0.000261
0.00081198	0.99979016	0.000257
0.000813326	0.99978329	0.000239
0.000814677	0.99978271	0.000239
0.000816033	0.99977875	0.000234
0.000817393	0.9997623	0.000239
0.000818757	0.99975622	0.000258
0.000820126	0.99978946	0.000271
0.0008215	0.99981284	0.000232
0.000822878	0.99979533	0.000218
0.000824261	0.99978316	0.000215
0.000825649	0.9997866	0.000229
0.000827041	0.99979293	0.000217
0.000828438	0.99979412	0.000209
0.00082984	0.99978913	0.000193
0.000831247	0.99978719	0.000179
0.000832658	0.99977564	0.000163
0.000834074	0.99975106	0.000163
0.000835495	0.99974868	0.000164
0.00083692	0.99973531	0.000149
0.000838351	0.99970895	0.000149
0.000839787	0.99968276	0.000148
0.000841227	0.9996391	0.000152
0.000842672	0.99954907	0.000205
0.000844123	0.99941246	0.000353
0.000845578	0.99969398	0.000819
0.000847039	1.0001303	0.000441
0.000848504	1.0000081	0.000172
0.000849974	0.9999102	0.000134
0.00085145	0.99985938	0.000123
0.000861017	0.99977927	0.000131
0.000876403	0.99970626	0.000114
0.000892349	0.99965915	0.000106
0.000908886	0.99961127	0.00012
0.000926047	0.99957958	0.00012
0.000943869	0.99954633	0.000122
0.00096239	0.99952012	0.000133
0.000981653	0.99948658	0.000142
0.001001703	0.99945741	0.000152
0.001022589	0.99942156	0.000159
0.001044364	0.99939071	0.000168
0.001067087	0.9993573	0.000178
0.00109082	0.99932134	0.000195
0.001115634	0.99928505	0.000205
0.001141602	0.99924636	0.000221
0.001168809	0.99920586	0.000234
0.001197343	0.99916159	0.000253
0.001227306	0.99911797	0.000271
0.001258936	0.9990712	0.000291
0.001292104	0.99901692	0.00031
0.001327066	0.99896353	0.000337
0.001364277	0.99890173	0.00036
0.001403313	0.9988347	0.000394
0.001446911	0.99875903	0.000427
0.001490819	0.99868851	0.000478
0.001537476	0.99860866	0.00052
0.001587147	0.99852326	0.000563
0.001640135	0.99843705	0.000616
0.001696783	0.99833331	0.000684
0.001760235	0.99822185	0.000757
0.001825581	0.99810818	0.000833
0.001895966	0.99798195	0.000924
0.001971997	0.99784327	0.001022
0.002054379	0.99770384	0.001137
0.002143946	0.99753401	0.001271
0.002173176	0.99748181	0.001317
0.002182793	0.99746826	0.001333
0.002192497	0.99745232	0.001344
0.002202286	0.99743611	0.001361
0.002212164	0.9974153	0.001374
0.00222213	0.99740064	0.001392
0.002232187	0.99738362	0.001408
0.002242335	0.99736369	0.001426
0.002252576	0.9973427	0.001441
0.002262911	0.99732346	0.001458
0.002273341	0.99730393	0.00147
0.002283867	0.9972811	0.001496
0.002294492	0.99725473	0.001535
0.002305216	0.99726813	0.001579
0.002316041	0.99727917	0.001563
0.002326967	0.99727297	0.001564
0.0023402	0.99725717	0.001545
0.002351326	0.99720784	0.001555
0.002362557	0.99717679	0.00158
0.002373896	0.99714873	0.00159
0.002413278	0.99707212	0.001652
0.002461315	0.99697279	0.001738
0.002482803	0.99692049	0.00178
0.002495321	0.99690253	0.001803
0.002507965	0.99688172	0.001828
0.002520738	0.99686088	0.001849
0.002533641	0.99683468	0.00187
0.002546678	0.99680946	0.001893
0.002559849	0.99678837	0.00192
0.002573158	0.99676793	0.001943
0.002586605	0.99674791	0.001967
0.002600194	0.99672821	0.001987
0.002613926	0.9967057	0.002006
0.002627804	0.99667971	0.002025
0.00264183	0.9966511	0.002045
0.002656007	0.99661561	0.00207
0.002670336	0.99662059	0.002095
0.002684822	0.99656329	0.002089
0.002699465	0.99655613	0.002136
0.002714268	0.99650512	0.00214
0.002729235	0.9964615	0.002184
0.002744368	0.99643894	0.002214
0.00275967	0.99640687	0.002241
0.002775144	0.99637725	0.002271
0.002790791	0.99634599	0.002299
0.002806617	0.99631492	0.002331
0.002822623	0.99628323	0.002362
0.002838812	0.996251	0.002395
0.002855188	0.99622034	0.002427
0.002871754	0.99619084	0.002459
0.002888514	0.99615892	0.002489
0.00290547	0.99612637	0.002522
0.002922627	0.99609307	0.002556
0.002939987	0.99605837	0.002595
0.002957555	0.9960268	0.002627
0.002975334	0.99599414	0.002664
0.002993328	0.9959635	0.002701
0.003011542	0.99592976	0.002736
0.003029978	0.99589546	0.002774
0.003048641	0.99585798	0.002811
0.003067536	0.99583293	0.002849
0.003086666	0.99579865	0.002886
0.003116139	0.99574047	0.002963
0.003135802	0.99571067	0.002972
0.003155716	0.99566806	0.003025
0.003175884	0.99563547	0.003062
0.003196312	0.99560047	0.003103
0.003217004	0.99556644	0.003141
0.003237966	0.99552151	0.003172
0.003259203	0.99547857	0.003218
0.00328072	0.99543952	0.003262
0.003302523	0.99540178	0.003302
0.003324618	0.99535194	0.00334
0.00334701	0.99529995	0.00339
0.003369706	0.99525875	0.00344
0.003392713	0.99521286	0.00349
0.003416035	0.99517009	0.003545
0.00343968	0.99512396	0.003595
0.003463655	0.99508272	0.003646
0.003487967	0.99503427	0.003693
0.003512622	0.9949678	0.003753
0.003537628	0.99493135	0.003786
0.003562993	0.99487043	0.003873
0.003588724	0.99481911	0.003951
0.003614829	0.99478677	0.004035
0.003641318	0.99477332	0.004115
0.003668197	0.99477597	0.004171
0.003695476	0.99476582	0.004197
0.003723163	0.99474112	0.004212
0.003751269	0.99468978	0.004204
0.003779802	0.9945983	0.004223
0.003808773	0.99450579	0.004273
0.003838191	0.99442442	0.004324
0.003868067	0.99433786	0.004391
0.003899487	0.9942491	0.00445
0.003930391	0.9941786	0.004542
0.003961789	0.99409275	0.00461
0.003993693	0.99401894	0.004667
0.004026114	0.99393967	0.004755
0.004059067	0.99386117	0.004828
0.004092563	0.99376588	0.004918
0.004126616	0.993702	0.00501
0.004161241	0.99361811	0.005107
0.004196452	0.9935021	0.005185
0.004232264	0.99340742	0.005323
0.004268693	0.99335363	0.00549
0.004305754	0.99329066	0.005538
0.004343464	0.99312529	0.005763
0.004381841	0.99314985	0.005746
0.004420902	0.99304983	0.005855
0.004460665	0.99295305	0.005969
0.00450115	0.9928858	0.00608
0.004542377	0.99280274	0.006214
0.004584366	0.9927241	0.006338
0.004627139	0.99263316	0.006449
0.004670717	0.99255111	0.00658
0.004715124	0.99246582	0.006705
0.004760383	0.99237559	0.006847
0.00480652	0.99228768	0.006991
0.00485356	0.99220045	0.007128
0.004901529	0.99210979	0.007272
0.004950457	0.99201444	0.007429
0.005000371	0.99192908	0.00757
0.005051301	0.99182217	0.00773
0.00510328	0.99172872	0.007898
0.00515634	0.99163177	0.008065
0.005210514	0.99152943	0.008239
0.005265839	0.99143806	0.008432
0.005322352	0.99134363	0.008614
0.005380091	0.99124911	0.008806
0.005439096	0.99116853	0.008998
0.00549941	0.99107352	0.00919
0.005561076	0.99097597	0.009391
0.005624141	0.99088787	0.009595
0.005688653	0.99079458	0.009812
0.005754662	0.99070904	0.010012
0.005822221	0.99062129	0.010212
0.005891385	0.9905186	0.010403
0.005962211	0.99040289	0.010592
0.006034762	0.99025475	0.010778
0.0061091	0.99008603	0.010978
0.006185292	0.98984727	0.011158
0.006329215	0.98927555	0.011627
0.006409791	0.9887801	0.011902
0.006492445	0.98837969	0.012618
0.006577258	0.98786437	0.013168
0.006664316	0.98705365	0.014112
0.00675371	0.98597929	0.015828
0.006845535	0.98542397	0.019812
0.006939891	0.99136803	0.025906
0.007036884	0.99666302	0.018031
0.007136628	0.99862045	0.018586
0.007239239	1.0014945	0.023655
0.007344844	0.99776792	0.009115
0.007453576	0.99419969	0.009846
0.007565576	0.99258324	0.010527
0.007680993	0.99157201	0.011067
0.007799986	0.99093674	0.01157
0.00802373	0.98969651	0.012148
0.008287886	0.98860526	0.012923
0.008570027	0.9876028	0.013721
0.008872054	0.9866368	0.014577
0.009196147	0.98570647	0.01548
0.009544816	0.98479424	0.016439
0.009920967	0.98384708	0.017347
0.010327981	0.98274829	0.018292
0.01076982	0.98155401	0.019303
0.011251152	0.9801783	0.02028
0.011777522	0.9783764	0.021274
0.01235556	0.97606882	0.023188
0.012730445	0.97466316	0.023627
0.013060677	0.97336642	0.0246
0.013408498	0.97204783	0.025602
0.013775351	0.97068148	0.026638
0.014162843	0.96917891	0.027648
0.014572767	0.96747983	0.028678
0.015007126	0.96551569	0.029735
0.015468175	0.96325144	0.030935
0.01595845	0.96067871	0.032336
0.016480821	0.95773764	0.033899
0.017038548	0.95436029	0.035708
0.01757379	0.95115639	0.037773
0.017885936	0.94895428	0.03893
0.01820937	0.94669839	0.040245
0.018544718	0.94437992	0.04181
0.018892649	0.94189462	0.043358
0.019253885	0.93921094	0.045218
0.019629204	0.93636106	0.047063
0.020019447	0.93324774	0.049432
0.020425521	0.93001479	0.051881
0.020848409	0.92662888	0.054856
0.021289179	0.92312705	0.057915
0.021748989	0.91962474	0.061312
0.022229099	0.91565015	0.064797
0.022730884	0.9114195	0.068809
0.023255847	0.90688899	0.072852
0.023805631	0.90120801	0.076856
0.024382038	0.89366655	0.082138
0.024987051	0.88500365	0.092041396
0.025622854	0.87967259	0.102
0.026291858	0.87327764	0.1107078
0.026996734	0.86409	0.12315135
0.027740446	0.85374963	0.1406664
0.028666864	0.84012033	0.169
0.029520045	0.84063424	0.2079901
0.030425567	0.85530931	0.24164218
0.031388402	0.88034508	0.27714487
0.032414167	0.92393453	0.30423748
0.03350924	0.96057819	0.29917754
0.034680892	0.97731371	0.30042072
0.035937446	1.0195712	0.30721858
0.037288477	1.0649398	0.27846282
0.038745059	1.0658606	0.234
0.040320061	1.0571087	0.2158615
0.042028538	1.0509056	0.21188052
0.043888208	1.0526584	0.21635952
0.045920069	1.0826798	0.21237782
0.048149199	1.1085443	0.169023
0.050605791	1.0791349	0.08426145
0.053326532	1.0001636	0.0672
0.056356449	0.93867133	0.06889995
0.059751416	0.88098811	0.082
0.063581635	0.81652355	0.10078095
0.067936541	0.72756797	0.12911158
0.072931875	0.61211192	0.2
0.078720119	0.48860623	0.4
0.091840139	0.58592424	0.79366667
0.137760208	1.0242038	1.25
0.247968375	1.489346	1.445
0.480311785	1.9780185	2.4766667
