Material: main / Hf / Windt
Optical constants. D. L. Windt, W. C. Cash, M. Scott, P. Arendt, B. Newnam, R. F. Fisher, A. B. Swartzlander. Optical constants for thin films of Ti, Zr, Nb, Mo, Ru, Rh, Pd, Ag, Hf, Ta, W, Re, Ir, Os, Pt, and Au from 24 Å to 1216 Å, Appl. Opt. 27, 246-278 (1988)
wavelength (um)	n	k
0.00236	0.99705	0.00163
0.00316	0.99598	0.00279
0.00447	0.99169	0.00660
0.00676	0.9848	0.0119
0.01140	0.9638	0.0238
0.01355	0.9498	0.0342
0.01714	0.9245	0.0473
0.02430	0.802	0.179
0.02563	0.790	0.216
0.03038	0.928	0.278
0.03270	0.918	0.337
0.03568	0.929	0.337
0.03793	1.04	0.454
0.04059	0.894	0.278
0.04478	0.847	0.315
0.04607	0.842	0.294
0.04895	0.883	0.387
0.05391	0.828	0.313
0.05843	0.801	0.386
0.06163	0.814	0.403
0.06714	0.804	0.483
0.07185	0.853	0.55
0.07359	0.843	0.588
0.07437	0.856	0.602
0.08345	0.813	0.785
0.08780	0.808	0.873
0.09198	0.885	0.965
0.09321	0.960	1.01
0.09888	0.912	1.03
0.10258	1.07	1.13
0.10482	1.11	1.14
0.10667	1.19	1.18
0.10857	1.15	1.17
0.11350	1.27	1.20
0.12007	1.25	1.18
0.12157	1.39	1.19
