Material: main / Ti / Palm
Optical constants. K. J. Palm, J. B. Murray, T. C. Narayan, J. N. Munday. Dynamic optical properties of metal hydrides, ACS Photonics 5, 4677-4686 (2018)(Numerical data kindly provided by Kevin Palm)
Comments: Titanium, Room temperature, 200 nm thin film, electron beam evaporated, vacuum annealed 2 hr 350 Â°C.
wavelength (um)	n	k
0.226076263	1.190343	1.096289
0.229268463	1.186753	1.106461
0.232460739	1.183112	1.116306
0.235653107	1.179298	1.126587
0.238845535	1.175429	1.137744
0.24203801	1.171744	1.150007
0.24523056	1.16849	1.163416
0.248423187	1.165859	1.177939
0.251615875	1.164037	1.193504
0.254808594	1.163208	1.209995
0.258001404	1.163571	1.227211
0.261194214	1.165202	1.244822
0.264387085	1.168027	1.26256
0.267580017	1.171934	1.280235
0.27077298	1.1768	1.297705
0.273965973	1.182501	1.314865
0.277158997	1.188915	1.33163
0.280352081	1.195904	1.347937
0.283545135	1.203331	1.363757
0.286738251	1.211057	1.379085
0.289931396	1.218948	1.393944
0.293124573	1.226861	1.408383
0.296317719	1.234632	1.422527
0.299510895	1.242216	1.436629
0.302704071	1.249716	1.450869
0.305897278	1.257267	1.465348
0.309090485	1.265015	1.480112
0.312283661	1.273109	1.495168
0.315476868	1.281703	1.510478
0.318670044	1.290969	1.525959
0.32186322	1.301055	1.54139
0.325056396	1.31193	1.556521
0.328249542	1.323494	1.57119
0.331442688	1.335638	1.585289
0.334635773	1.348247	1.598746
0.337828857	1.361209	1.611516
0.341021912	1.374416	1.623575
0.344214935	1.387766	1.634917
0.347407928	1.401155	1.645553
0.350600891	1.414497	1.655524
0.353793793	1.427731	1.664872
0.356986664	1.440808	1.673635
0.360179504	1.453685	1.68185
0.363372284	1.466322	1.689551
0.366565002	1.478682	1.696775
0.36975766	1.490732	1.703555
0.372950287	1.502438	1.709929
0.376142853	1.513766	1.715937
0.379335327	1.524679	1.721623
0.382527771	1.535135	1.727054
0.385720093	1.545128	1.732321
0.388912384	1.554684	1.737493
0.392104553	1.563832	1.742624
0.395296692	1.572604	1.747754
0.398488708	1.581033	1.752917
0.401680695	1.589152	1.75814
0.404872559	1.596995	1.763443
0.408064331	1.604594	1.768841
0.411256012	1.61198	1.774346
0.414447571	1.619187	1.779964
0.417639069	1.626245	1.785697
0.420830414	1.633189	1.791542
0.424021729	1.640051	1.797482
0.427212891	1.646845	1.803491
0.4304039	1.653576	1.809552
0.433594818	1.660245	1.815652
0.436785645	1.666853	1.821781
0.439976379	1.673398	1.827932
0.443166931	1.679878	1.834097
0.446357361	1.686291	1.840273
0.449547668	1.692633	1.846457
0.452737854	1.6989	1.852647
0.455927887	1.705087	1.858842
0.459117767	1.71119	1.865043
0.462307556	1.717202	1.871251
0.465497162	1.723117	1.877469
0.468686615	1.728927	1.883704
0.471875916	1.73462	1.889963
0.475065094	1.740189	1.896269
0.478254089	1.745638	1.902646
0.481442932	1.75098	1.909109
0.484631592	1.756229	1.915671
0.487820129	1.761397	1.922341
0.491008453	1.7665	1.929125
0.494196625	1.77155	1.936028
0.497384613	1.776561	1.943053
0.500572418	1.781548	1.9502
0.503760071	1.786522	1.957471
0.50694751	1.791496	1.964864
0.510134766	1.796482	1.972377
0.513321838	1.801492	1.980008
0.516508667	1.806536	1.987752
0.519695435	1.811625	1.995606
0.522881897	1.816769	2.003564
0.526068176	1.821979	2.011621
0.529254211	1.827263	2.019771
0.532440063	1.83263	2.028006
0.535625732	1.838091	2.036319
0.538811157	1.843656	2.044698
0.541996399	1.849326	2.053129
0.545181396	1.855106	2.0616
0.54836615	1.860994	2.070103
0.55155072	1.866992	2.078627
0.554735046	1.873097	2.087165
0.557919128	1.879311	2.09571
0.561102966	1.88563	2.104253
0.564286621	1.892055	2.11279
0.567470032	1.898583	2.121314
0.570653137	1.905214	2.129819
0.57383606	1.911944	2.1383
0.577018677	1.918773	2.146753
0.58020105	1.925699	2.155173
0.583383179	1.93272	2.163555
0.586565063	1.939834	2.171896
0.589746704	1.94704	2.180192
0.592927979	1.954335	2.188438
0.59610907	1.961719	2.196633
0.599289917	1.969189	2.204771
0.602470398	1.976744	2.21285
0.605650696	1.984382	2.220867
0.608830688	1.992104	2.228819
0.612010376	1.999907	2.236702
0.615189758	2.007791	2.244512
0.618368896	2.015756	2.252247
0.621547729	2.023803	2.2599
0.624726257	2.031931	2.267464
0.62790448	2.040135	2.274931
0.631082458	2.048411	2.282294
0.634260132	2.056751	2.289549
0.637437378	2.065149	2.296693
0.640614441	2.0736	2.303723
0.643791138	2.082098	2.310635
0.64696759	2.090636	2.317429
0.650143677	2.099209	2.324104
0.653319458	2.107812	2.330657
0.656494873	2.116438	2.33709
0.659669983	2.125083	2.343401
0.662844788	2.133742	2.349591
0.666019165	2.142409	2.35566
0.669193298	2.15108	2.361609
0.672367065	2.15975	2.367438
0.675540527	2.168414	2.373149
0.678713623	2.177069	2.378742
0.681886353	2.185711	2.38422
0.685058777	2.194335	2.389583
0.688230835	2.202938	2.394833
0.691402527	2.211515	2.399972
0.694573853	2.220065	2.405001
0.697744873	2.228582	2.409923
0.700915466	2.237064	2.414739
0.704085693	2.245508	2.419451
0.707255554	2.25391	2.424061
0.71042511	2.262268	2.428572
0.713594177	2.270579	2.432986
0.716762939	2.278839	2.437305
0.719931335	2.287047	2.441532
0.723099304	2.295199	2.445668
0.726266907	2.303293	2.449718
0.729434143	2.311326	2.453682
0.732600952	2.319294	2.457565
0.735767334	2.327196	2.461369
0.73893335	2.335027	2.465099
0.742098999	2.342787	2.468761
0.745264221	2.350473	2.472361
0.748429016	2.358088	2.475902
0.751593384	2.365631	2.479388
0.754757385	2.373103	2.482824
0.757920959	2.380505	2.486212
0.761084106	2.387838	2.489556
0.764246826	2.395103	2.492857
0.767409119	2.402302	2.49612
0.770570984	2.409434	2.499346
0.773732483	2.416502	2.502538
0.776893433	2.423506	2.505697
0.780054077	2.430447	2.508826
0.783214172	2.437327	2.511925
0.786373901	2.444147	2.514998
0.789533081	2.450908	2.518045
0.792691956	2.457611	2.521069
0.795850281	2.464257	2.524069
0.799008179	2.470846	2.527048
0.802165649	2.477382	2.530007
0.805322632	2.483864	2.532947
0.808479126	2.490293	2.535869
0.811635193	2.49667	2.538774
0.814790771	2.502997	2.541662
0.817945923	2.509274	2.544536
0.821100586	2.515503	2.547395
0.8242547	2.521683	2.55024
0.827408386	2.527817	2.553072
0.830561646	2.533906	2.555892
0.833714355	2.539949	2.558701
0.836866577	2.545948	2.561498
0.840018372	2.551904	2.564285
0.843169617	2.557818	2.567062
0.846320313	2.56369	2.569829
0.849470581	2.569521	2.572588
0.852620422	2.575312	2.575338
0.855769653	2.581064	2.578079
0.858918335	2.586777	2.580813
0.862066589	2.592453	2.583539
0.865214355	2.598091	2.586259
0.868361511	2.603693	2.588971
0.871508179	2.609259	2.591677
0.874654419	2.61479	2.594376
0.87780011	2.620287	2.59707
0.88094519	2.625749	2.599757
0.884089722	2.631179	2.602439
0.887233765	2.636575	2.605116
0.890377319	2.64194	2.607787
0.893520325	2.647274	2.610454
0.896662781	2.652576	2.613115
0.899804688	2.657847	2.615772
0.902945984	2.663089	2.618425
0.906086792	2.668301	2.621073
0.909227051	2.673485	2.623716
0.912366699	2.678639	2.626355
0.915505859	2.683766	2.628991
0.918644409	2.688865	2.631622
0.92178241	2.693938	2.634249
0.924919922	2.698983	2.636873
0.928056763	2.704002	2.639493
0.931193054	2.708996	2.642109
0.934328796	2.713964	2.644722
0.937463867	2.718906	2.647331
0.94059845	2.723824	2.649936
0.943732422	2.728718	2.652538
0.946865845	2.733588	2.655137
0.949998657	2.738434	2.657732
0.953130859	2.743257	2.660324
0.956262512	2.748057	2.662912
0.959393555	2.752834	2.665498
0.962523926	2.757589	2.66808
0.965653809	2.762322	2.670658
0.96878302	2.767034	2.673234
0.971911621	2.771724	2.675806
0.975039551	2.776392	2.678375
0.978166992	2.781041	2.68094
0.981293762	2.785668	2.683503
0.9844198	2.790275	2.686062
0.98754541	2.794862	2.688618
0.990670288	2.799429	2.691171
0.993794556	2.803977	2.69372
0.996918152	2.808505	2.696266
1.011449524	2.829335	2.708075
1.018225952	2.838919	2.713561
1.025004272	2.848427	2.719036
1.031784424	2.85786	2.724499
1.03856665	2.86722	2.729949
1.045350586	2.876507	2.735388
1.052136475	2.885724	2.740814
1.058924194	2.894872	2.746228
1.065713867	2.903952	2.751629
1.072505493	2.912966	2.757018
1.07929895	2.921913	2.762394
1.08609436	2.930797	2.767756
1.092891602	2.939616	2.773106
1.099690674	2.948372	2.778443
1.106491821	2.957067	2.783766
1.113294678	2.9657	2.789076
1.120099609	2.974272	2.794373
1.126906372	2.982785	2.799657
1.133714966	2.991237	2.804928
1.140525513	2.99963	2.810186
1.147337891	3.007965	2.815431
1.154152222	3.016241	2.820663
1.160968506	3.024458	2.825883
1.167786499	3.032617	2.831091
1.174606567	3.040717	2.836289
1.181428467	3.048758	2.841475
1.188252197	3.056739	2.846654
1.195077881	3.064661	2.851827
1.201905518	3.072526	2.856998
1.208734863	3.080334	2.862166
1.215566162	3.08809	2.867334
1.222399536	3.095794	2.872504
1.229234619	3.103448	2.877674
1.236071655	3.111056	2.882847
1.242910522	3.118617	2.888022
1.249751343	3.126135	2.8932
1.256593994	3.133611	2.898381
1.263438721	3.141048	2.903565
1.270285156	3.148447	2.908752
1.277133545	3.155809	2.913942
1.283983765	3.163136	2.919135
1.290835938	3.170431	2.924331
1.297689941	3.177695	2.929528
1.304545898	3.184928	2.934728
1.311403687	3.192133	2.939929
1.318263428	3.199311	2.945131
1.325125122	3.206464	2.950333
1.331988525	3.213592	2.955536
1.338853882	3.220698	2.960738
1.345721191	3.227781	2.965939
1.352590454	3.234844	2.971138
1.359461426	3.241888	2.976334
1.366334351	3.248913	2.981528
1.373209229	3.255921	2.986717
1.380085938	3.262912	2.991903
1.3869646	3.269888	2.997084
1.393844971	3.27685	3.002259
1.400727417	3.283799	3.007427
1.407611694	3.290735	3.012589
1.414497803	3.297659	3.017742
1.421385864	3.304573	3.022887
1.428275757	3.311476	3.028023
1.435167725	3.31837	3.033149
1.442061279	3.325256	3.038264
1.448956909	3.332134	3.043367
1.45585437	3.339005	3.048459
1.462753784	3.34587	3.053538
1.469655029	3.352729	3.058603
1.476558228	3.359583	3.063653
1.483463135	3.366433	3.068689
1.490370117	3.373279	3.073709
1.497278931	3.380123	3.078712
1.504189697	3.386964	3.083697
1.511102173	3.393804	3.088665
1.518016602	3.400643	3.093613
1.524932983	3.407481	3.098542
1.531851196	3.41432	3.103451
1.53877124	3.42116	3.108338
1.545693237	3.428002	3.113203
1.552617188	3.434846	3.118045
1.559542969	3.441693	3.122864
1.566470581	3.448544	3.127658
1.573400146	3.455399	3.132427
1.580331543	3.46226	3.137169
1.587264893	3.469127	3.141884
1.594199951	3.476001	3.146571
1.601137085	3.482882	3.151229
1.60807605	3.489773	3.155857
1.615016846	3.496672	3.160454
1.621959595	3.503582	3.165019
1.628904175	3.510504	3.16955
1.635850708	3.517439	3.174047
1.642799072	3.524387	3.178508
1.649749268	3.531351	3.182931
1.656701416	3.538332	3.187316
1.663655518	3.545332	3.191661
1.670611328	3.552351	3.195964
1.677569092	3.559394	3.200222
1.684528687	3.566462	3.204432
