Material: main / Ti / Rakic-LD
Optical constants. A. D. Rakić, A. B. Djurišic, J. M. Elazar, and M. L. Majewski. Optical properties of metallic films for vertical-cavity optoelectronic devices, Appl. Opt. 37, 5271-5283 (1998)[Calculation script (Python)]
Comments: Fit of experimental data from several sources to Lorentz-Drude (LD) model
Specs: {"n_absolute": true, "wavelength_vacuum": true}
wavelength (um)	n	k
2.4797e-01	4.4635e-01	1.5069e+00
2.5159e-01	4.5679e-01	1.5361e+00
2.5526e-01	4.6759e-01	1.5654e+00
2.5899e-01	4.7876e-01	1.5950e+00
2.6278e-01	4.9032e-01	1.6247e+00
2.6661e-01	5.0226e-01	1.6546e+00
2.7051e-01	5.1461e-01	1.6847e+00
2.7446e-01	5.2738e-01	1.7150e+00
2.7847e-01	5.4058e-01	1.7454e+00
2.8253e-01	5.5422e-01	1.7761e+00
2.8666e-01	5.6833e-01	1.8069e+00
2.9085e-01	5.8291e-01	1.8379e+00
2.9509e-01	5.9798e-01	1.8691e+00
2.9940e-01	6.1356e-01	1.9005e+00
3.0378e-01	6.2968e-01	1.9320e+00
3.0821e-01	6.4634e-01	1.9637e+00
3.1272e-01	6.6357e-01	1.9956e+00
3.1728e-01	6.8139e-01	2.0276e+00
3.2192e-01	6.9982e-01	2.0597e+00
3.2662e-01	7.1888e-01	2.0920e+00
3.3139e-01	7.3861e-01	2.1243e+00
3.3623e-01	7.5901e-01	2.1568e+00
3.4114e-01	7.8012e-01	2.1893e+00
3.4612e-01	8.0195e-01	2.2218e+00
3.5118e-01	8.2454e-01	2.2543e+00
3.5631e-01	8.4791e-01	2.2868e+00
3.6151e-01	8.7207e-01	2.3193e+00
3.6679e-01	8.9705e-01	2.3516e+00
3.7215e-01	9.2286e-01	2.3838e+00
3.7758e-01	9.4952e-01	2.4157e+00
3.8310e-01	9.7703e-01	2.4474e+00
3.8869e-01	1.0054e+00	2.4787e+00
3.9437e-01	1.0346e+00	2.5097e+00
4.0013e-01	1.0647e+00	2.5401e+00
4.0597e-01	1.0956e+00	2.5700e+00
4.1190e-01	1.1273e+00	2.5993e+00
4.1792e-01	1.1597e+00	2.6278e+00
4.2402e-01	1.1929e+00	2.6556e+00
4.3021e-01	1.2266e+00	2.6824e+00
4.3650e-01	1.2609e+00	2.7084e+00
4.4287e-01	1.2957e+00	2.7334e+00
4.4934e-01	1.3307e+00	2.7573e+00
4.5590e-01	1.3660e+00	2.7802e+00
4.6256e-01	1.4013e+00	2.8020e+00
4.6932e-01	1.4366e+00	2.8227e+00
4.7617e-01	1.4717e+00	2.8424e+00
4.8313e-01	1.5065e+00	2.8611e+00
4.9018e-01	1.5409e+00	2.8789e+00
4.9734e-01	1.5747e+00	2.8959e+00
5.0460e-01	1.6079e+00	2.9122e+00
5.1197e-01	1.6403e+00	2.9279e+00
5.1945e-01	1.6721e+00	2.9432e+00
5.2704e-01	1.7030e+00	2.9582e+00
5.3474e-01	1.7332e+00	2.9730e+00
5.4254e-01	1.7626e+00	2.9878e+00
5.5047e-01	1.7913e+00	3.0026e+00
5.5851e-01	1.8194e+00	3.0177e+00
5.6667e-01	1.8469e+00	3.0330e+00
5.7494e-01	1.8739e+00	3.0486e+00
5.8334e-01	1.9005e+00	3.0647e+00
5.9186e-01	1.9268e+00	3.0812e+00
6.0050e-01	1.9529e+00	3.0981e+00
6.0927e-01	1.9788e+00	3.1155e+00
6.1817e-01	2.0047e+00	3.1334e+00
6.2720e-01	2.0305e+00	3.1517e+00
6.3636e-01	2.0564e+00	3.1705e+00
6.4565e-01	2.0824e+00	3.1896e+00
6.5508e-01	2.1086e+00	3.2091e+00
6.6465e-01	2.1350e+00	3.2290e+00
6.7436e-01	2.1616e+00	3.2491e+00
6.8421e-01	2.1885e+00	3.2695e+00
6.9420e-01	2.2156e+00	3.2901e+00
7.0434e-01	2.2431e+00	3.3108e+00
7.1463e-01	2.2708e+00	3.3317e+00
7.2506e-01	2.2988e+00	3.3528e+00
7.3565e-01	2.3271e+00	3.3738e+00
7.4640e-01	2.3557e+00	3.3950e+00
7.5730e-01	2.3846e+00	3.4161e+00
7.6836e-01	2.4137e+00	3.4372e+00
7.7958e-01	2.4430e+00	3.4583e+00
7.9097e-01	2.4726e+00	3.4794e+00
8.0252e-01	2.5024e+00	3.5004e+00
8.1424e-01	2.5323e+00	3.5213e+00
8.2613e-01	2.5625e+00	3.5421e+00
8.3820e-01	2.5928e+00	3.5628e+00
8.5044e-01	2.6232e+00	3.5835e+00
8.6286e-01	2.6538e+00	3.6040e+00
8.7546e-01	2.6844e+00	3.6244e+00
8.8825e-01	2.7151e+00	3.6447e+00
9.0122e-01	2.7459e+00	3.6649e+00
9.1438e-01	2.7767e+00	3.6849e+00
9.2774e-01	2.8076e+00	3.7049e+00
9.4129e-01	2.8384e+00	3.7248e+00
9.5504e-01	2.8693e+00	3.7445e+00
9.6898e-01	2.9001e+00	3.7642e+00
9.8314e-01	2.9309e+00	3.7838e+00
9.9750e-01	2.9616e+00	3.8033e+00
1.0121e+00	2.9922e+00	3.8228e+00
1.0268e+00	3.0228e+00	3.8422e+00
1.0418e+00	3.0533e+00	3.8616e+00
1.0571e+00	3.0837e+00	3.8809e+00
1.0725e+00	3.1140e+00	3.9002e+00
1.0882e+00	3.1441e+00	3.9195e+00
1.1041e+00	3.1741e+00	3.9388e+00
1.1202e+00	3.2040e+00	3.9581e+00
1.1365e+00	3.2338e+00	3.9775e+00
1.1531e+00	3.2633e+00	3.9968e+00
1.1700e+00	3.2928e+00	4.0162e+00
1.1871e+00	3.3220e+00	4.0357e+00
1.2044e+00	3.3511e+00	4.0553e+00
1.2220e+00	3.3800e+00	4.0749e+00
1.2398e+00	3.4087e+00	4.0946e+00
1.2579e+00	3.4373e+00	4.1144e+00
1.2763e+00	3.4656e+00	4.1343e+00
1.2950e+00	3.4937e+00	4.1544e+00
1.3139e+00	3.5217e+00	4.1746e+00
1.3331e+00	3.5494e+00	4.1949e+00
1.3525e+00	3.5769e+00	4.2154e+00
1.3723e+00	3.6042e+00	4.2360e+00
1.3923e+00	3.6313e+00	4.2569e+00
1.4127e+00	3.6582e+00	4.2779e+00
1.4333e+00	3.6848e+00	4.2991e+00
1.4542e+00	3.7112e+00	4.3205e+00
1.4755e+00	3.7374e+00	4.3421e+00
1.4970e+00	3.7633e+00	4.3640e+00
1.5189e+00	3.7890e+00	4.3861e+00
1.5411e+00	3.8144e+00	4.4084e+00
1.5636e+00	3.8395e+00	4.4310e+00
1.5864e+00	3.8644e+00	4.4539e+00
1.6096e+00	3.8891e+00	4.4770e+00
1.6331e+00	3.9134e+00	4.5005e+00
1.6569e+00	3.9375e+00	4.5242e+00
1.6811e+00	3.9612e+00	4.5482e+00
1.7057e+00	3.9847e+00	4.5726e+00
1.7306e+00	4.0079e+00	4.5973e+00
1.7559e+00	4.0307e+00	4.6223e+00
1.7815e+00	4.0533e+00	4.6477e+00
1.8075e+00	4.0755e+00	4.6735e+00
1.8339e+00	4.0974e+00	4.6996e+00
1.8607e+00	4.1189e+00	4.7262e+00
1.8879e+00	4.1400e+00	4.7531e+00
1.9155e+00	4.1608e+00	4.7805e+00
1.9435e+00	4.1813e+00	4.8084e+00
1.9718e+00	4.2013e+00	4.8366e+00
2.0006e+00	4.2209e+00	4.8654e+00
2.0299e+00	4.2402e+00	4.8947e+00
2.0595e+00	4.2590e+00	4.9245e+00
2.0896e+00	4.2773e+00	4.9548e+00
2.1201e+00	4.2953e+00	4.9857e+00
2.1511e+00	4.3128e+00	5.0171e+00
2.1825e+00	4.3298e+00	5.0492e+00
2.2144e+00	4.3464e+00	5.0818e+00
2.2467e+00	4.3624e+00	5.1152e+00
2.2795e+00	4.3780e+00	5.1492e+00
2.3128e+00	4.3931e+00	5.1839e+00
2.3466e+00	4.4077e+00	5.2193e+00
2.3809e+00	4.4217e+00	5.2555e+00
2.4156e+00	4.4352e+00	5.2925e+00
2.4509e+00	4.4482e+00	5.3303e+00
2.4867e+00	4.4606e+00	5.3690e+00
2.5230e+00	4.4725e+00	5.4086e+00
2.5599e+00	4.4838e+00	5.4491e+00
2.5973e+00	4.4945e+00	5.4905e+00
2.6352e+00	4.5047e+00	5.5330e+00
2.6737e+00	4.5142e+00	5.5765e+00
2.7127e+00	4.5232e+00	5.6211e+00
2.7523e+00	4.5317e+00	5.6668e+00
2.7925e+00	4.5395e+00	5.7137e+00
2.8333e+00	4.5467e+00	5.7618e+00
2.8747e+00	4.5534e+00	5.8112e+00
2.9167e+00	4.5595e+00	5.8619e+00
2.9593e+00	4.5650e+00	5.9139e+00
3.0025e+00	4.5700e+00	5.9674e+00
3.0464e+00	4.5744e+00	6.0223e+00
3.0909e+00	4.5782e+00	6.0788e+00
3.1360e+00	4.5816e+00	6.1367e+00
3.1818e+00	4.5844e+00	6.1964e+00
3.2283e+00	4.5868e+00	6.2576e+00
3.2754e+00	4.5886e+00	6.3207e+00
3.3233e+00	4.5901e+00	6.3854e+00
3.3718e+00	4.5911e+00	6.4520e+00
3.4210e+00	4.5917e+00	6.5205e+00
3.4710e+00	4.5919e+00	6.5910e+00
3.5217e+00	4.5919e+00	6.6634e+00
3.5731e+00	4.5915e+00	6.7379e+00
3.6253e+00	4.5909e+00	6.8145e+00
3.6783e+00	4.5901e+00	6.8932e+00
3.7320e+00	4.5891e+00	6.9741e+00
3.7865e+00	4.5880e+00	7.0572e+00
3.8418e+00	4.5869e+00	7.1427e+00
3.8979e+00	4.5857e+00	7.2304e+00
3.9548e+00	4.5846e+00	7.3206e+00
4.0126e+00	4.5836e+00	7.4131e+00
4.0712e+00	4.5827e+00	7.5082e+00
4.1307e+00	4.5821e+00	7.6057e+00
4.1910e+00	4.5818e+00	7.7057e+00
4.2522e+00	4.5818e+00	7.8083e+00
4.3143e+00	4.5822e+00	7.9135e+00
4.3773e+00	4.5830e+00	8.0213e+00
4.4412e+00	4.5845e+00	8.1317e+00
4.5061e+00	4.5865e+00	8.2448e+00
4.5719e+00	4.5893e+00	8.3605e+00
4.6387e+00	4.5927e+00	8.4790e+00
4.7064e+00	4.5970e+00	8.6001e+00
4.7752e+00	4.6022e+00	8.7239e+00
4.8449e+00	4.6084e+00	8.8504e+00
4.9157e+00	4.6156e+00	8.9797e+00
4.9875e+00	4.6239e+00	9.1116e+00
5.0603e+00	4.6333e+00	9.2463e+00
5.1342e+00	4.6440e+00	9.3837e+00
5.2092e+00	4.6560e+00	9.5238e+00
5.2853e+00	4.6693e+00	9.6665e+00
5.3625e+00	4.6841e+00	9.8120e+00
5.4408e+00	4.7004e+00	9.9601e+00
5.5203e+00	4.7182e+00	1.0111e+01
5.6009e+00	4.7376e+00	1.0264e+01
5.6827e+00	4.7587e+00	1.0420e+01
5.7657e+00	4.7816e+00	1.0579e+01
5.8499e+00	4.8062e+00	1.0740e+01
5.9353e+00	4.8326e+00	1.0904e+01
6.0220e+00	4.8609e+00	1.1070e+01
6.1100e+00	4.8912e+00	1.1239e+01
6.1992e+00	4.9235e+00	1.1410e+01
6.2897e+00	4.9578e+00	1.1583e+01
6.3816e+00	4.9942e+00	1.1760e+01
6.4748e+00	5.0327e+00	1.1938e+01
6.5694e+00	5.0734e+00	1.2119e+01
6.6653e+00	5.1163e+00	1.2302e+01
6.7627e+00	5.1615e+00	1.2487e+01
6.8614e+00	5.2089e+00	1.2675e+01
6.9617e+00	5.2588e+00	1.2865e+01
7.0633e+00	5.3109e+00	1.3057e+01
7.1665e+00	5.3655e+00	1.3252e+01
7.2712e+00	5.4226e+00	1.3448e+01
7.3774e+00	5.4821e+00	1.3647e+01
7.4851e+00	5.5442e+00	1.3848e+01
7.5944e+00	5.6088e+00	1.4050e+01
7.7053e+00	5.6759e+00	1.4255e+01
7.8179e+00	5.7457e+00	1.4462e+01
7.9321e+00	5.8182e+00	1.4671e+01
8.0479e+00	5.8932e+00	1.4881e+01
8.1654e+00	5.9710e+00	1.5094e+01
8.2847e+00	6.0515e+00	1.5308e+01
8.4057e+00	6.1348e+00	1.5524e+01
8.5285e+00	6.2208e+00	1.5742e+01
8.6530e+00	6.3096e+00	1.5962e+01
8.7794e+00	6.4013e+00	1.6183e+01
8.9076e+00	6.4957e+00	1.6407e+01
9.0377e+00	6.5930e+00	1.6631e+01
9.1697e+00	6.6932e+00	1.6858e+01
9.3036e+00	6.7963e+00	1.7086e+01
9.4395e+00	6.9024e+00	1.7315e+01
9.5774e+00	7.0113e+00	1.7546e+01
9.7173e+00	7.1232e+00	1.7778e+01
9.8592e+00	7.2380e+00	1.8012e+01
1.0003e+01	7.3559e+00	1.8247e+01
1.0149e+01	7.4767e+00	1.8484e+01
1.0298e+01	7.6005e+00	1.8722e+01
1.0448e+01	7.7273e+00	1.8961e+01
1.0600e+01	7.8571e+00	1.9201e+01
1.0755e+01	7.9900e+00	1.9443e+01
1.0912e+01	8.1259e+00	1.9686e+01
1.1072e+01	8.2648e+00	1.9930e+01
1.1233e+01	8.4068e+00	2.0175e+01
1.1398e+01	8.5518e+00	2.0421e+01
1.1564e+01	8.6999e+00	2.0668e+01
1.1733e+01	8.8511e+00	2.0916e+01
1.1904e+01	9.0053e+00	2.1165e+01
1.2078e+01	9.1625e+00	2.1415e+01
1.2255e+01	9.3228e+00	2.1666e+01
1.2434e+01	9.4862e+00	2.1918e+01
1.2615e+01	9.6526e+00	2.2171e+01
1.2799e+01	9.8221e+00	2.2424e+01
1.2986e+01	9.9946e+00	2.2678e+01
1.3176e+01	1.0170e+01	2.2933e+01
1.3368e+01	1.0349e+01	2.3189e+01
1.3564e+01	1.0530e+01	2.3445e+01
1.3762e+01	1.0715e+01	2.3702e+01
1.3963e+01	1.0902e+01	2.3960e+01
1.4167e+01	1.1093e+01	2.4218e+01
1.4374e+01	1.1286e+01	2.4476e+01
1.4583e+01	1.1483e+01	2.4736e+01
1.4796e+01	1.1682e+01	2.4995e+01
1.5013e+01	1.1885e+01	2.5255e+01
1.5232e+01	1.2090e+01	2.5516e+01
1.5454e+01	1.2298e+01	2.5777e+01
1.5680e+01	1.2509e+01	2.6038e+01
1.5909e+01	1.2723e+01	2.6300e+01
1.6141e+01	1.2939e+01	2.6562e+01
1.6377e+01	1.3159e+01	2.6825e+01
1.6616e+01	1.3381e+01	2.7088e+01
1.6859e+01	1.3606e+01	2.7351e+01
1.7105e+01	1.3834e+01	2.7614e+01
1.7355e+01	1.4064e+01	2.7878e+01
1.7608e+01	1.4298e+01	2.8142e+01
1.7866e+01	1.4533e+01	2.8406e+01
1.8127e+01	1.4772e+01	2.8670e+01
1.8391e+01	1.5013e+01	2.8935e+01
1.8660e+01	1.5257e+01	2.9200e+01
1.8932e+01	1.5503e+01	2.9465e+01
1.9209e+01	1.5752e+01	2.9730e+01
1.9490e+01	1.6003e+01	2.9996e+01
1.9774e+01	1.6257e+01	3.0261e+01
2.0063e+01	1.6513e+01	3.0527e+01
2.0356e+01	1.6772e+01	3.0793e+01
2.0653e+01	1.7033e+01	3.1060e+01
2.0955e+01	1.7297e+01	3.1326e+01
2.1261e+01	1.7563e+01	3.1593e+01
2.1572e+01	1.7831e+01	3.1860e+01
2.1887e+01	1.8101e+01	3.2127e+01
2.2206e+01	1.8374e+01	3.2394e+01
2.2531e+01	1.8649e+01	3.2662e+01
2.2860e+01	1.8926e+01	3.2929e+01
2.3193e+01	1.9206e+01	3.3197e+01
2.3532e+01	1.9488e+01	3.3465e+01
2.3876e+01	1.9772e+01	3.3734e+01
2.4225e+01	2.0058e+01	3.4003e+01
2.4578e+01	2.0346e+01	3.4272e+01
2.4937e+01	2.0636e+01	3.4541e+01
2.5302e+01	2.0928e+01	3.4811e+01
2.5671e+01	2.1223e+01	3.5081e+01
2.6046e+01	2.1519e+01	3.5351e+01
2.6426e+01	2.1817e+01	3.5622e+01
2.6812e+01	2.2118e+01	3.5893e+01
2.7204e+01	2.2420e+01	3.6165e+01
2.7601e+01	2.2724e+01	3.6437e+01
2.8004e+01	2.3031e+01	3.6709e+01
2.8413e+01	2.3339e+01	3.6982e+01
2.8828e+01	2.3649e+01	3.7256e+01
2.9249e+01	2.3961e+01	3.7530e+01
2.9677e+01	2.4275e+01	3.7804e+01
3.0110e+01	2.4590e+01	3.8080e+01
3.0550e+01	2.4908e+01	3.8355e+01
3.0996e+01	2.5227e+01	3.8632e+01
