Material: main / Pb / Golovashkin-293K
Optical constants. A. I. Golovashkin and G. P. Motulevich. Optical properties of lead in the visible and infrared spectral ranges, Sov. Phys. JETP 26, 881-887 (1968)
Comments: 293 K (19.85 Â°C)
Specs: {"temperature": "293 K"}
wavelength (um)	n	k
0.45	1.44	3.18
0.46	1.54	3.20
0.47	1.58	3.23
0.48	1.62	3.25
0.49	1.68	3.28
0.50	1.70	3.30
0.51	1.74	3.31
0.52	1.75	3.34
0.53	1.78	3.36
0.54	1.81	3.37
0.55	1.83	3.40
0.56	1.87	3.41
0.57	1.87	3.43
0.58	1.90	3.43
0.59	1.91	3.44
0.60	1.91	3.45
0.61	1.94	3.46
0.62	1.94	3.47
0.63	1.95	3.48
0.64	1.94	3.49
0.65	1.91	3.51
0.66	1.89	3.51
0.68	1.85	3.53
0.70	1.78	3.57
0.72	1.71	3.64
0.74	1.63	3.73
0.75	1.60	3.78
0.76	1.57	3.84
0.78	1.52	3.96
0.80	1.50	4.09
0.82	1.47	4.18
0.85	1.44	4.35
0.88	1.41	4.56
0.90	1.40	4.68
0.92	1.38	4.80
0.95	1.38	4.99
0.98	1.38	5.16
1.00	1.38	5.32
1.05	1.38	5.62
1.10	1.40	5.98
1.15	1.41	6.31
1.20	1.44	6.59
1.25	1.48	6.93
1.30	1.50	7.23
1.35	1.52	7.48
1.40	1.58	7.74
1.45	1.60	8.01
1.50	1.64	8.30
1.55	1.69	8.58
1.60	1.77	8.90
1.70	1.89	9.47
1.80	2.05	10.10
1.90	2.18	10.70
2.00	2.32	11.20
2.10	2.47	11.70
2.20	2.63	12.20
2.30	2.84	12.80
2.40	3.03	13.20
2.50	3.22	13.90
2.55	3.34	14.10
2.60	3.45	14.40
3.0	4.27	16.40
3.5	5.39	18.60
4.0	6.58	20.80
5.0	9.04	24.80
6.0	11.70	28.10
7.0	14.10	30.90
8.0	16.40	33.60
9.0	18.70	35.80
10.0	21.00	37.40
11.0	23.20	39.20
12.0	24.60	40.50
