Material: main / Ca / Mathewson
Optical constants. A. G. Mathewson and H. P. Myers. Absolute values of the optical constants of some pure metals, Phys. Scr. 4, 291-292 (1971)
Comments: 298 K (24.85 Â°C)
Specs: {"n_absolute": true, "wavelength_vacuum": true, "temperature": "298 K"}
wavelength (um)	n	k
0.33968	0.42862	1.15487
0.34440	0.42547	1.17517
0.34925	0.42252	1.19521
0.35424	0.41608	1.21372
0.35937	0.41353	1.23329
0.36466	0.40753	1.25143
0.37010	0.39620	1.28723
0.37571	0.38566	1.32240
0.38149	0.38067	1.33974
0.38745	0.37585	1.35693
0.39360	0.35811	1.42416
0.39995	0.34681	1.45612
0.40651	0.33931	1.48833
0.41328	0.33224	1.51999
0.42029	0.31927	1.58175
0.42753	0.31330	1.61188
0.43503	0.30226	1.67074
0.44280	0.29715	1.69950
0.45085	0.29040	1.75623
0.45920	0.28432	1.81131
0.46786	0.28815	1.83930
0.47686	0.28407	1.91851
0.48621	0.28178	1.96962
0.49594	0.28463	2.02015
0.50606	0.28428	2.09304
0.51660	0.28500	2.14038
0.52759	0.28515	2.20937
0.53906	0.28555	2.27630
0.55104	0.28571	2.36255
0.56356	0.28656	2.42531
0.57667	0.28725	2.50649
0.59040	0.28818	2.58516
0.60480	0.29116	2.66172
0.61992	0.29408	2.75436
0.63582	0.29712	2.84399
0.65255	0.30194	2.93107
0.67018	0.30671	3.03217
0.68880	0.31309	3.11416
0.70848	0.31936	3.22521
0.72932	0.32709	3.34768
0.75142	0.33470	3.46584
0.77490	0.34499	3.59430
0.79990	0.35772	3.73202
0.82656	0.37139	3.89075
0.85506	0.38949	4.04372
0.88560	0.40449	4.20281
0.91840	0.42018	4.37910
0.95372	0.43540	4.57051
0.99187	0.45534	4.75472
1.03320	0.47649	4.94237
1.07812	0.49972	5.14293
1.12713	0.53677	5.36546
1.18080	0.57170	5.61488
1.23984	0.60214	5.87899
1.30510	0.63184	6.17246
1.37760	0.66011	6.49890
1.45864	0.72263	6.84998
1.54980	0.80774	7.24241
1.65312	0.88689	7.66724
