Material: main / Ca / Rodriguez-de Marcos
Optical constants. L. Rodríguez-de Marcos, J. I. Larruquert, M. Vidal-Dasilva, J. A. Aznárez, S. García-Cortés, J. A. Méndez, L. Poletto, F. Frassetto, A. M. Malvezzi, D. Bajoni, A. Giglia, N. Mahne, S. Nannarone. Transmittance and optical constants of Ca films in the 4–1000 eV spectral range, Appl. Opt. 54, 1910-1917 (2015) (Numerical data kindly provided by Juan Larruquert)
Comments: Density: 1.55 g/cm3. Film deposited at room temperature.
Specs: {"n_absolute": true, "wavelength_vacuum": true}
wavelength (um)	n	k
0.001233674	0.99969464	7.2436E-05
0.001265145	0.99967971	7.76367E-05
0.001298264	0.99966296	8.41444E-05
0.001333163	0.99964476	9.1177E-05
0.001369991	0.99962199	0.000101623
0.001408911	0.99960257	0.000113547
0.001450107	0.99958293	0.000125012
0.001493785	0.99955881	0.000136163
0.001540176	0.99953112	0.000152559
0.001589541	0.99950165	0.000170222
0.001642175	0.99947325	0.000191356
0.001698414	0.99944125	0.00021405
0.001758641	0.99940349	0.000241094
0.001823297	0.9993676	0.0002749
0.001892888	0.99932988	0.000312242
0.001968003	0.99929023	0.0003543
0.002049331	0.9992496	0.000400624
0.002083443	0.99923016	0.000422357
0.002118709	0.99920946	0.000447007
0.002155191	0.9991952	0.000471905
0.00219295	0.99917445	0.000497415
0.002232056	0.99915616	0.000529024
0.002272582	0.99914135	0.000556557
0.002314607	0.9991284	0.000586332
0.002358215	0.99909828	0.000615295
0.002403499	0.9990895	0.000651198
0.002450555	0.99907938	0.000689467
0.002474734	0.99906212	0.00070402
0.002499681	0.99904793	0.000728505
0.002525136	0.99904524	0.000753691
0.002551115	0.99903913	0.000776045
0.002577634	0.99903206	0.00079992
0.00260471	0.99903296	0.000820624
0.002632361	0.99902225	0.000837458
0.002649235	0.99901315	0.000852044
0.002663463	0.99900646	0.00087536
0.002677844	0.99900781	0.000889188
0.002692382	0.99899746	0.00091257
0.002707078	0.99901242	0.000926359
0.002721936	0.99900327	0.00093648
0.002736958	0.9990073	0.000964525
0.002752146	0.99901612	0.000986058
0.002767504	0.99903454	0.001001919
0.002783035	0.9990528	0.001006504
0.00279874	0.99906577	0.00100358
0.002814624	0.99906963	0.000996965
0.002830689	0.99906758	0.000990786
0.002846939	0.99905136	0.0009848
0.002863376	0.9990339	0.000996461
0.002880004	0.99902221	0.001015563
0.002896827	0.99901348	0.001034237
0.002913847	0.9990119	0.001057635
0.002931068	0.99901778	0.001081097
0.002948494	0.99904781	0.001103894
0.002980389	0.99903431	0.001091613
0.003016647	0.9990142	0.001106132
0.003053798	0.99900334	0.001158747
0.003076531	0.9989889	0.00118363
0.003095735	0.9990217	0.001202059
0.003115181	0.99903197	0.001207079
0.003134872	0.9990052	0.001202678
0.003154814	0.99899367	0.001237089
0.003175011	0.99900114	0.001260067
0.003195469	0.99898185	0.001269151
0.003216192	0.99897656	0.001309116
0.003237185	0.99897406	0.001346429
0.003258454	0.99899522	0.001390847
0.003280005	0.99901934	0.001409269
0.003301843	0.99903235	0.001418043
0.003323973	0.99904152	0.001421742
0.003346402	0.99902921	0.001426512
0.003369136	0.99899447	0.001440518
0.00339218	0.99897162	0.001472857
0.003415542	0.99892798	0.001441925
0.003439229	0.99875356	0.001419646
0.003463245	0.99839224	0.00150817
0.0034876	0.99773594	0.001888624
0.0035123	0.99648005	0.003598365
0.003537352	1.0037023	0.006153009
0.003562764	1.0017958	0.006613758
0.003588544	1.0032753	0.000415063
0.003614699	1.0015478	0.000216529
0.003641239	1.0009295	0.00020192
0.003668171	1.0005601	0.000202403
0.003695505	1.0003112	0.000206536
0.003723249	1.0001202	0.000212901
0.003751413	0.99996883	0.000219241
0.003850441	0.99960719	0.000236064
0.003973852	0.99929879	0.000264855
0.004091655	0.99909326	0.000298551
0.00422993	0.99892072	0.00030428
0.004408717	0.99871116	0.000386569
0.004569673	0.99843925	0.000400654
0.004742827	0.99822157	0.000457724
0.00492962	0.99800825	0.000518021
0.00513173	0.99777137	0.000569565
0.005351121	0.99751921	0.000648285
0.005590108	0.99723526	0.000727402
0.005851441	0.99692954	0.000834527
0.006077656	0.99664919	0.000923959
0.006203865	0.9964824	0.000985806
0.006227246	0.99645953	0.000994818
0.006250804	0.99643433	0.001004247
0.006274542	0.99640798	0.001013767
0.00629846	0.99638083	0.001023488
0.006322561	0.99635312	0.001033276
0.006346848	0.99632481	0.001043263
0.006371321	0.99629609	0.001053316
0.006395985	0.99626685	0.001063551
0.00642084	0.99623725	0.001073878
0.006445889	0.99620726	0.001084402
0.006471134	0.9961769	0.001095006
0.006496577	0.99614618	0.001105786
0.006522222	0.99611512	0.001116647
0.006548069	0.99608364	0.001127682
0.006574123	0.99605189	0.001138795
0.006600384	0.99601966	0.001150084
0.006626857	0.99598716	0.001161472
0.006653542	0.99595419	0.001173077
0.006680443	0.99592089	0.00118478
0.006707563	0.99588724	0.001196697
0.006734903	0.99585322	0.001208708
0.006762468	0.99581884	0.001220959
0.006790259	0.99578405	0.001233284
0.006818279	0.99574886	0.001245859
0.006846532	0.99571337	0.001258521
0.00687502	0.99567744	0.001271459
0.006903746	0.99564117	0.001284485
0.006932712	0.9956045	0.001297733
0.006961923	0.99556747	0.001311078
0.006991381	0.99553003	0.001324629
0.00702109	0.99549208	0.00133829
0.007051052	0.99545384	0.001352133
0.007081271	0.99541503	0.001366156
0.00711175	0.99537589	0.001380366
0.007142492	0.99533618	0.001394796
0.007173502	0.99529615	0.001409362
0.007204782	0.99525556	0.001424194
0.007236335	0.99521452	0.001439147
0.007268167	0.99517308	0.001454392
0.00730028	0.99513105	0.001469761
0.007332678	0.99508868	0.001485409
0.007365364	0.99504569	0.001501264
0.007398344	0.99500236	0.00151733
0.00743162	0.99495841	0.001533622
0.007465196	0.9949141	0.001550045
0.007499078	0.99486916	0.001566768
0.007533268	0.99482365	0.001583601
0.007567772	0.9947777	0.001600712
0.007602593	0.99473105	0.001618035
0.007637736	0.99468398	0.001635615
0.007673206	0.9946362	0.001653483
0.007709006	0.99458797	0.001671504
0.007745142	0.9945391	0.001689874
0.007781619	0.99448965	0.001708413
0.00781844	0.99443959	0.001727208
0.007855612	0.99438889	0.001746273
0.007893139	0.99433753	0.001765523
0.007931026	0.99428559	0.001785169
0.007969279	0.99423288	0.001804988
0.008007902	0.99417966	0.00182505
0.008046902	0.9941256	0.001845377
0.008086283	0.99407087	0.001865873
0.008126052	0.9940153	0.001886705
0.008166214	0.9939589	0.001907761
0.008206775	0.99390164	0.00192908
0.00824774	0.99384351	0.001950813
0.008289117	0.99378433	0.001972403
0.008330911	0.9937228	0.001994481
0.008373128	0.9936598	0.002018403
0.008415776	0.99359615	0.002045886
0.008458861	0.99353362	0.002076381
0.008502388	0.99347785	0.002107374
0.008546366	0.99342362	0.002133613
0.008590802	0.99336753	0.002148925
0.008635702	0.99329978	0.002165893
0.008681073	0.99322525	0.002188071
0.008726924	0.99315582	0.002220526
0.008773262	0.99308965	0.002248685
0.008820094	0.99302131	0.002278258
0.00886743	0.99295805	0.002307224
0.008915276	0.99288863	0.002329231
0.008963641	0.99281548	0.002357603
0.009012533	0.99274489	0.002384015
0.009061963	0.99266714	0.002410231
0.009111937	0.99259092	0.002442243
0.009162465	0.99251417	0.002470822
0.009213557	0.99243096	0.002505892
0.009265223	0.99235727	0.00254375
0.00931747	0.9922791	0.002574404
0.00937031	0.99219854	0.002613584
0.009423753	0.99212416	0.002650101
0.00947781	0.99204651	0.002684124
0.009532489	0.99196739	0.002718657
0.009587804	0.99188677	0.002753254
0.009643764	0.99180387	0.002791601
0.009700381	0.99172955	0.002829915
0.009757667	0.99165085	0.002859521
0.009815634	0.99156768	0.002888787
0.009874294	0.99148084	0.002919347
0.009933658	0.99139424	0.002949739
0.009993741	0.99130141	0.002976702
0.010054555	0.99120429	0.003010931
0.010116113	0.99110885	0.003044111
0.010178431	0.99100526	0.00307945
0.010241521	0.99090975	0.003125178
0.010305398	0.99081786	0.003157485
0.010370076	0.99071758	0.00318856
0.010435571	0.99061052	0.003220934
0.0105019	0.99050035	0.003257097
0.010569076	0.99038902	0.003300507
0.010637117	0.99028151	0.003345222
0.010706041	0.99017893	0.003388158
0.010775863	0.99007263	0.003424515
0.010846602	0.98996292	0.003459096
0.010918276	0.98985004	0.003491285
0.010990904	0.98972839	0.00352349
0.011064503	0.98960418	0.003560039
0.011139096	0.98947914	0.003600232
0.011214701	0.98935691	0.003637496
0.011291339	0.98923499	0.003667905
0.011369032	0.98909229	0.003685132
0.011447802	0.98893342	0.003722266
0.011527671	0.9887674	0.003780977
0.011608662	0.98862743	0.003852658
0.011690799	0.98850524	0.003920601
0.011774107	0.98839079	0.003955464
0.01185861	0.98826737	0.003975782
0.011944336	0.98813648	0.003977704
0.01203131	0.98795849	0.003947499
0.01211956	0.98771716	0.003919531
0.012209113	0.98737522	0.003996186
0.0123	0.9870315	0.004221712
0.012392251	0.98708769	0.004740351
0.012485895	0.98729956	0.00446405
0.012580966	0.98701843	0.004347489
0.012677496	0.98679011	0.004357406
0.012775518	0.98657893	0.004391397
0.012875068	0.98637057	0.004425743
0.012976182	0.98615666	0.004463725
0.013078896	0.98593634	0.004508713
0.01318325	0.98572891	0.004566164
0.013289282	0.98552048	0.004593042
0.013397033	0.98528417	0.004633665
0.013506546	0.9850635	0.004678915
0.013617865	0.9848308	0.004707944
0.013731033	0.98458091	0.004730172
0.013846098	0.98430558	0.004767637
0.013963108	0.9840301	0.004820104
0.014082113	0.98377058	0.004885146
0.014203163	0.98351073	0.004913757
0.014326313	0.98322251	0.004949938
0.014451616	0.98293919	0.004986691
0.014579131	0.98263399	0.005007614
0.014708917	0.98230926	0.005037411
0.014841034	0.98197012	0.005075838
0.014975545	0.9816294	0.005118952
0.015112517	0.98127802	0.005160201
0.015252018	0.9809216	0.005209069
0.015394119	0.9805706	0.005233864
0.015538892	0.98016556	0.005255173
0.015686414	0.97976715	0.005309157
0.015836764	0.97937616	0.005350225
0.015990024	0.97899041	0.005343134
0.01614628	0.97850453	0.005330271
0.016305619	0.9780293	0.005380568
0.016468134	0.97758658	0.005439129
0.016633922	0.97720387	0.005364504
0.016803082	0.97666075	0.005268553
0.016975717	0.97599866	0.005129877
0.017151937	0.97532005	0.005183998
0.017331854	0.97466607	0.005245248
0.017515585	0.97406392	0.005160631
0.017703253	0.97334393	0.005125643
0.017894987	0.97259597	0.005091566
0.018090919	0.97181449	0.005051168
0.018291189	0.97098323	0.004985288
0.018495942	0.97009115	0.004918189
0.018705332	0.96913813	0.004846666
0.018919517	0.96810621	0.004772763
0.019138663	0.96700198	0.004700974
0.019362946	0.96582268	0.004656633
0.019592548	0.96456388	0.004599284
0.019827661	0.96321256	0.004572402
0.020068485	0.96177378	0.004561648
0.02031523	0.96024113	0.00457738
0.020568119	0.95859036	0.00461968
0.020827383	0.95684658	0.00467625
0.021093267	0.95497227	0.004752379
0.021366027	0.95295043	0.00488795
0.021645934	0.95076704	0.005059375
0.021933272	0.94843153	0.005298407
0.022228341	0.94593355	0.005608117
0.022531458	0.94319345	0.005981899
0.022842955	0.94026819	0.006514132
0.023163187	0.93710069	0.007174991
0.023492524	0.93374044	0.008017469
0.023831362	0.93011323	0.009019064
0.024180117	0.92626378	0.010201245
0.024539231	0.92209047	0.011637224
0.024909173	0.91758745	0.013350361
0.02529044	0.91276277	0.015376286
0.025683559	0.90751824	0.017837614
0.026089093	0.90183284	0.02082523
0.026507639	0.8957909	0.024480569
0.026939835	0.88940061	0.028965563
0.027386356	0.8828828	0.034208063
0.027847929	0.87604008	0.040231346
0.028325327	0.86879247	0.047246347
0.02881938	0.86127311	0.055408949
0.029330972	0.8531086	0.064665455
0.029861056	0.84379614	0.076879002
0.030410653	0.8347424	0.091138011
0.03098086	0.82481524	0.113596039
0.031572859	0.82386152	0.132581491
0.032187922	0.81933579	0.154716051
0.032827426	0.81631738	0.182872538
0.033492856	0.8184664	0.219319394
0.034185822	0.83113292	0.259743751
0.034908067	0.85662208	0.304904463
0.03566149	0.90807216	0.342002196
0.036448152	0.96926078	0.356833257
0.037270303	1.0294229	0.35124736
0.0381304	1.0827692	0.329173264
0.039031132	1.1222497	0.29278618
0.039975449	1.1454158	0.2542928
0.040966592	1.158418	0.217612162
0.042008134	1.158557	0.18286009
0.043104017	1.1575854	0.159498197
0.044258609	1.1573192	0.138183771
0.045476759	1.1592602	0.117995201
0.046763861	1.1590739	0.086969833
0.048125943	1.1437174	0.059222938
0.049569751	1.1288213	0.033386048
0.051102867	1.0992138	0.019573603
0.052733845	1.0743449	0.017182657
0.054472361	1.0554862	0.016982142
0.056329416	1.038773	0.018015339
0.05831756	1.0234558	0.019949086
0.060451181	1.0095645	0.02282106
0.062746854	0.99614907	0.025072756
0.065223768	0.9818857	0.027124264
0.067904271	0.96386419	0.030020982
0.070814537	0.94447697	0.038196902
0.073985432	0.93596616	0.05096868
0.077453612	0.91751824	0.051496389
0.081262932	0.90280718	0.061356474
0.084697226	0.87931246	0.063504191
0.088378327	0.85199734	0.074826421
0.092219413	0.82394754	0.09166858
0.09622744	0.80463275	0.118981102
0.100409665	0.78417372	0.136168027
0.104773655	0.75967121	0.158442737
0.109327319	0.74049445	0.186319588
0.114078889	0.7099864	0.208926521
0.119036964	0.67829063	0.24842523
0.124210534	0.65549754	0.296141283
0.129608956	0.6344717	0.343698658
0.135242002	0.61640239	0.401108397
0.141119873	0.61023421	0.459794664
0.147253205	0.60439125	0.519881473
0.153404333	0.59996535	0.57955285
0.162589355	0.6062215	0.696537
0.174728977	0.66400519	0.813395
0.187578208	0.76506155	0.945663
0.202885278	0.95201625	0.987625
0.22103074	1.0887213	0.875402
0.242250157	1.040662	0.736744
0.269109978	0.8505283	0.712629
0.301111911	0.67365232	0.86865443
