Material: main / BP / Wettling
Optical constants. W. Wettling and J. Windscheif. Elastic constants and refractive index of boron phosphide, Solid State Commun. 50 33-34 (1984)
Comments: Room temperature
wavelength (um)	n
0.4545	3.34
0.4580	3.34
0.4880	3.32
0.4960	3.30
0.5145	3.26
0.6328	3.00
