Material: main / Te / Ciesielski
Optical constants. A. Ciesielski, L. Skowronski, W.Pacuski, T. Szoplik. Permittivity of Ge, Te and Se thin films in the 200â€“1500 nm spectral range. Predicting the segregation effects in silver, Mat. Sci. Semicond. Process. 81, 64-67 (2018) (Numerical data kindly provided by Arkadiusz Ciesielski)
Comments: 30 nm-thick tellurium film deposited directly on SiO2 substrate
Specs: {"n_absolute": true, "wavelength_vacuum": true, "film_thickness": "30 nm", "substrate": "SiO2"}
wavelength (um)	n	k
0.20000	1.519	1.089
0.20065	1.514	1.088
0.20130	1.510	1.088
0.20195	1.505	1.087
0.20261	1.501	1.087
0.20328	1.496	1.087
0.20395	1.491	1.088
0.20462	1.487	1.088
0.20530	1.482	1.089
0.20598	1.477	1.090
0.20667	1.472	1.091
0.20736	1.468	1.092
0.20805	1.463	1.093
0.20875	1.458	1.095
0.20946	1.454	1.097
0.21017	1.449	1.099
0.21088	1.445	1.101
0.21160	1.440	1.103
0.21233	1.436	1.106
0.21306	1.431	1.108
0.21379	1.427	1.111
0.21453	1.423	1.114
0.21528	1.418	1.118
0.21603	1.414	1.121
0.21678	1.410	1.124
0.21754	1.406	1.128
0.21831	1.402	1.132
0.21908	1.399	1.136
0.21986	1.395	1.140
0.22064	1.391	1.144
0.22143	1.388	1.148
0.22222	1.384	1.152
0.22302	1.381	1.157
0.22383	1.378	1.161
0.22464	1.374	1.166
0.22545	1.371	1.170
0.22628	1.368	1.175
0.22711	1.365	1.180
0.22794	1.362	1.185
0.22878	1.359	1.190
0.22963	1.356	1.195
0.23048	1.354	1.200
0.23134	1.351	1.205
0.23221	1.348	1.210
0.23308	1.345	1.215
0.23396	1.343	1.221
0.23485	1.340	1.226
0.23574	1.337	1.231
0.23664	1.334	1.237
0.23755	1.332	1.243
0.23846	1.329	1.248
0.23938	1.326	1.254
0.24031	1.324	1.260
0.24125	1.321	1.266
0.24219	1.318	1.273
0.24314	1.315	1.279
0.24409	1.312	1.286
0.24506	1.309	1.292
0.24603	1.307	1.299
0.24701	1.304	1.306
0.24800	1.301	1.313
0.24900	1.298	1.321
0.25000	1.295	1.329
0.25101	1.292	1.337
0.25203	1.289	1.345
0.25306	1.286	1.353
0.25410	1.283	1.362
0.25514	1.281	1.371
0.25620	1.278	1.380
0.25726	1.275	1.389
0.25833	1.273	1.399
0.25941	1.270	1.409
0.26050	1.268	1.420
0.26160	1.266	1.430
0.26271	1.264	1.441
0.26383	1.262	1.453
0.26496	1.261	1.464
0.26609	1.260	1.476
0.26724	1.259	1.488
0.26840	1.258	1.500
0.26957	1.257	1.513
0.27074	1.257	1.526
0.27193	1.257	1.539
0.27313	1.257	1.552
0.27434	1.258	1.566
0.27556	1.259	1.579
0.27679	1.261	1.593
0.27803	1.262	1.607
0.27928	1.264	1.622
0.28054	1.267	1.636
0.28182	1.270	1.650
0.28311	1.273	1.665
0.28440	1.277	1.679
0.28571	1.281	1.694
0.28704	1.285	1.708
0.28837	1.290	1.723
0.28972	1.295	1.738
0.29108	1.300	1.752
0.29245	1.306	1.767
0.29384	1.312	1.781
0.29524	1.319	1.796
0.29665	1.325	1.810
0.29808	1.332	1.825
0.29952	1.340	1.839
0.30097	1.347	1.853
0.30244	1.355	1.867
0.30392	1.363	1.881
0.30542	1.371	1.895
0.30693	1.380	1.909
0.30846	1.389	1.923
0.31000	1.398	1.936
0.31156	1.407	1.950
0.31313	1.416	1.964
0.31472	1.425	1.977
0.31633	1.435	1.991
0.31795	1.445	2.004
0.31959	1.455	2.017
0.32124	1.465	2.031
0.32292	1.475	2.044
0.32461	1.486	2.058
0.32632	1.496	2.071
0.32804	1.507	2.085
0.32979	1.518	2.098
0.33155	1.529	2.112
0.33333	1.541	2.125
0.33514	1.552	2.139
0.33696	1.564	2.153
0.33880	1.576	2.166
0.34066	1.589	2.180
0.34254	1.602	2.194
0.34444	1.615	2.208
0.34637	1.628	2.222
0.34831	1.642	2.236
0.35028	1.656	2.250
0.35227	1.670	2.264
0.35429	1.685	2.278
0.35632	1.700	2.292
0.35838	1.715	2.306
0.36047	1.731	2.320
0.36257	1.747	2.334
0.36471	1.764	2.348
0.36686	1.781	2.361
0.36905	1.798	2.375
0.37126	1.815	2.388
0.37349	1.833	2.401
0.37576	1.851	2.415
0.37805	1.870	2.428
0.38037	1.889	2.441
0.38272	1.908	2.454
0.38509	1.927	2.466
0.38750	1.947	2.479
0.38994	1.967	2.492
0.39241	1.987	2.504
0.39490	2.008	2.517
0.39744	2.029	2.529
0.40000	2.050	2.541
0.40260	2.072	2.554
0.40523	2.094	2.566
0.40789	2.117	2.578
0.41060	2.140	2.590
0.41333	2.163	2.602
0.41611	2.187	2.614
0.41892	2.212	2.626
0.42177	2.239	2.640
0.42466	2.262	2.649
0.42759	2.288	2.660
0.43056	2.315	2.671
0.43357	2.342	2.682
0.43662	2.369	2.692
0.43972	2.397	2.702
0.44286	2.426	2.711
0.44604	2.455	2.721
0.44928	2.484	2.730
0.45255	2.513	2.738
0.45588	2.543	2.746
0.45926	2.573	2.754
0.46269	2.604	2.762
0.46617	2.634	2.770
0.46970	2.665	2.778
0.47328	2.697	2.785
0.47692	2.729	2.793
0.48062	2.761	2.800
0.48438	2.795	2.808
0.48819	2.829	2.816
0.49206	2.864	2.824
0.49600	2.900	2.832
0.50000	2.937	2.839
0.50407	2.976	2.847
0.50820	3.016	2.854
0.51240	3.057	2.861
0.51667	3.101	2.867
0.52101	3.146	2.872
0.52542	3.192	2.876
0.52991	3.241	2.878
0.53448	3.291	2.879
0.53913	3.343	2.878
0.54386	3.396	2.875
0.54867	3.450	2.870
0.55357	3.506	2.862
0.55856	3.563	2.851
0.56364	3.620	2.838
0.56881	3.678	2.821
0.57407	3.735	2.801
0.57944	3.793	2.778
0.58491	3.850	2.752
0.59048	3.907	2.723
0.59615	3.962	2.690
0.60194	4.016	2.654
0.60784	4.068	2.616
0.61386	4.119	2.574
0.62000	4.166	2.530
0.62626	4.212	2.483
0.63265	4.255	2.434
0.63918	4.294	2.383
0.64583	4.331	2.331
0.65263	4.364	2.277
0.65957	4.394	2.222
0.66667	4.421	2.166
0.67391	4.444	2.110
0.68132	4.464	2.054
0.68889	4.480	1.997
0.69663	4.492	1.942
0.70455	4.501	1.888
0.71264	4.507	1.834
0.72093	4.510	1.783
0.72941	4.511	1.733
0.73810	4.508	1.686
0.74699	4.503	1.640
0.75610	4.497	1.598
0.76543	4.488	1.558
0.77500	4.478	1.522
0.78481	4.467	1.489
0.79487	4.456	1.459
0.80519	4.445	1.433
0.81579	4.434	1.409
0.82667	4.424	1.389
0.83784	4.416	1.373
0.84932	4.409	1.359
0.86111	4.405	1.347
0.87324	4.404	1.338
0.88571	4.406	1.330
0.89855	4.412	1.324
0.91176	4.421	1.318
0.92537	4.435	1.311
0.93939	4.452	1.304
0.95385	4.473	1.295
0.96875	4.498	1.284
0.98413	4.526	1.269
1.0000	4.557	1.250
1.0164	4.590	1.227
1.0333	4.623	1.198
1.0508	4.657	1.164
1.0690	4.690	1.125
1.0877	4.721	1.081
1.1071	4.750	1.032
1.1273	4.774	0.978
1.1481	4.794	0.921
1.1698	4.810	0.861
1.1923	4.819	0.798
1.2157	4.824	0.735
1.2400	4.822	0.672
1.2653	4.816	0.609
1.2917	4.804	0.547
1.3191	4.787	0.488
1.3478	4.766	0.431
1.4419	4.683	0.280
1.4762	4.650	0.236
1.5122	4.615	0.196
1.5500	4.579	0.161
1.5897	4.542	0.128
1.6316	4.504	0.100
1.6757	4.467	0.075
1.7222	4.429	0.054
1.7714	4.391	0.036
1.8235	4.354	0.022
1.8788	4.318	0.012
1.9375	4.284	0.005
2.0000	4.252	0.002
