Material: main / GaSb / Aspnes
Optical constants. D. E. Aspnes and A. A. Studna. Dielectric functions and optical parameters of Si, Ge, GaP, GaAs, GaSb, InP, InAs, and InSb from 1.5 to 6.0 eV, Phys. Rev. B 27, 985-1009 (1983)
Comments: Crysal orientation: ; Doping: 1.5Ã—1017 cm-3, p; Room temperature
wavelength (um)	n	k
0.2066	0.935	2.416
0.2101	0.985	2.444
0.2138	1.022	2.479
0.2175	1.062	2.535
0.2214	1.127	2.602
0.2254	1.212	2.645
0.2296	1.299	2.653
0.2339	1.345	2.638
0.2384	1.356	2.645
0.2431	1.358	2.685
0.2480	1.369	2.751
0.2530	1.387	2.829
0.2583	1.408	2.928
0.2638	1.444	3.055
0.2695	1.503	3.208
0.2755	1.586	3.392
0.2818	1.723	3.628
0.2883	1.989	3.923
0.2952	2.522	4.130
0.3024	3.100	3.976
0.3100	3.450	3.643
0.3179	3.620	3.323
0.3263	3.701	3.069
0.3351	3.748	2.862
0.3444	3.774	2.690
0.3542	3.785	2.545
0.3647	3.794	2.430
0.3757	3.808	2.319
0.3875	3.800	2.210
0.3999	3.766	2.134
0.4133	3.732	2.109
0.4275	3.728	2.121
0.4428	3.760	2.157
0.4592	3.836	2.211
0.4769	3.984	2.280
0.4959	4.312	2.285
0.5166	4.513	1.962
0.5391	4.492	1.789
0.5636	4.521	1.747
0.5904	4.705	1.803
0.6199	5.239	1.378
0.6525	5.052	0.829
0.6888	4.817	0.611
0.7293	4.643	0.485
0.7749	4.507	0.416
0.8266	4.388	0.344
