Material: main / LaF3 / Rodriguez-de Marcos
Optical constants. L. V. Rodríguez-de Marcos, J. I. Larruquert, J. A. Méndez, J. A. Aznárez. Self-consistent optical constants of MgF2, LaF3, and CeF3 films, Opt. Mater. Express 7, 989-1006 (2017) (Numerical data kindly provided by Juan Larruquert)
Comments: 48 nm film prepared by evaporation from tungsten boat at 250 °C
Specs: {"n_absolute": true, "wavelength_vacuum": true, "deposition_temperature": "250 °C"}
wavelength (um)	n	k
2.99274E-02	0.836223	0.151339
3.02790E-02	0.832576	0.155661
3.06348E-02	0.828672	0.160122
3.09948E-02	0.824490	0.164721
3.13590E-02	0.819996	0.169483
3.17275E-02	0.815145	0.174372
3.21003E-02	0.809725	0.179301
3.24775E-02	0.803279	0.184259
3.28591E-02	0.794777	0.190761
3.32452E-02	0.787409	0.200850
3.36358E-02	0.781025	0.211110
3.40311E-02	0.775221	0.221919
3.44309E-02	0.769876	0.233149
3.48355E-02	0.764940	0.244833
3.52448E-02	0.760351	0.256800
3.56590E-02	0.755930	0.268956
3.60780E-02	0.751332	0.281394
3.65019E-02	0.746448	0.294663
3.69308E-02	0.741608	0.309077
3.73648E-02	0.736946	0.324575
3.78038E-02	0.732677	0.341403
3.82480E-02	0.728958	0.359343
3.86974E-02	0.725867	0.378591
3.91521E-02	0.723623	0.399035
3.96122E-02	0.722218	0.420743
4.00776E-02	0.721921	0.443783
4.05486E-02	0.722754	0.468080
4.10250E-02	0.724944	0.493926
4.15071E-02	0.728663	0.521146
4.19948E-02	0.734102	0.550141
4.24882E-02	0.741675	0.580860
4.29875E-02	0.751587	0.613651
4.34926E-02	0.764659	0.648842
4.40036E-02	0.781471	0.686695
4.45207E-02	0.803557	0.728309
4.50438E-02	0.833385	0.774201
4.55731E-02	0.877699	0.825694
4.61086E-02	0.941744	0.870537
4.66504E-02	1.023154	0.896614
4.71985E-02	1.111289	0.893578
4.77531E-02	1.190361	0.856518
4.83143E-02	1.244730	0.805285
4.88820E-02	1.279606	0.754397
4.94563E-02	1.300437	0.709720
5.00375E-02	1.312788	0.673016
5.06254E-02	1.322085	0.645792
5.12203E-02	1.333106	0.622190
5.18221E-02	1.344421	0.598808
5.24311E-02	1.355371	0.575574
5.30471E-02	1.366448	0.552313
5.36705E-02	1.378320	0.526267
5.43011E-02	1.387937	0.494351
5.49391E-02	1.391540	0.456867
5.55847E-02	1.385607	0.416474
5.62378E-02	1.366682	0.377532
5.68986E-02	1.337879	0.352511
5.75672E-02	1.307502	0.341327
5.82436E-02	1.281062	0.342537
5.89280E-02	1.262146	0.352107
5.96204E-02	1.255493	0.367266
6.03210E-02	1.261070	0.373659
6.10298E-02	1.269564	0.366348
6.17469E-02	1.273181	0.347990
6.24724E-02	1.267656	0.321322
6.32065E-02	1.246229	0.289380
6.39492E-02	1.201344	0.264881
6.47006E-02	1.146694	0.281919
6.54609E-02	1.109858	0.329885
6.62301E-02	1.111979	0.402351
6.70083E-02	1.150939	0.421948
6.77956E-02	1.166998	0.421966
6.85923E-02	1.191173	0.426324
6.93982E-02	1.219998	0.414665
7.02137E-02	1.247716	0.376987
7.10387E-02	1.252052	0.301731
7.18734E-02	1.189813	0.196630
7.27180E-02	1.070187	0.198804
7.35724E-02	1.007199	0.260628
7.44369E-02	0.965625	0.307274
7.53116E-02	0.935620	0.356519
7.61965E-02	0.919472	0.407013
7.70918E-02	0.913056	0.447371
7.79977E-02	0.907094	0.473961
7.89142E-02	0.884952	0.487444
7.98414E-02	0.836943	0.523806
8.07796E-02	0.797810	0.612066
8.17288E-02	0.810555	0.731354
8.26891E-02	0.859317	0.792072
8.36607E-02	0.888370	0.821488
8.46438E-02	0.897876	0.871905
8.56384E-02	0.927224	0.950581
8.66446E-02	0.987752	1.009144
8.76627E-02	1.036594	1.030728
8.86928E-02	1.078253	1.083407
8.97350E-02	1.148290	1.108825
9.07894E-02	1.180964	1.106522
9.18562E-02	1.237422	1.170563
9.29355E-02	1.290282	1.163746
9.40275E-02	1.357998	1.186584
9.51324E-02	1.405207	1.208775
9.62502E-02	1.469487	1.214299
9.73812E-02	1.511706	1.202975
9.85254E-02	1.552441	1.220396
9.96831E-02	1.608274	1.245875
1.00854E-01	1.671763	1.261538
1.02039E-01	1.742293	1.277209
1.03238E-01	1.827141	1.287123
1.04452E-01	1.912419	1.276531
1.05679E-01	1.991946	1.257307
1.06921E-01	2.081413	1.248752
1.08177E-01	2.173748	1.213018
1.09448E-01	2.258383	1.190395
1.10734E-01	2.384913	1.190812
1.12035E-01	2.565442	1.140218
1.13352E-01	2.800601	1.034404
1.14684E-01	2.921398	0.525164
1.16031E-01	2.730729	0.264186
1.17395E-01	2.585354	0.138257
1.18774E-01	2.438043	0.087739
1.20170E-01	2.342740	0.075726
1.21582E-01	2.273187	0.064757
1.23010E-01	2.217478	0.053916
1.24456E-01	2.169969	0.043200
1.25918E-01	2.126543	0.032609
1.27398E-01	2.087433	0.028239
1.28895E-01	2.054054	0.024277
1.30409E-01	2.023664	0.020362
1.31942E-01	1.996288	0.019496
1.33492E-01	1.972683	0.018829
1.35060E-01	1.951820	0.018171
1.36647E-01	1.933180	0.017098
1.38253E-01	1.915900	0.015775
1.39878E-01	1.899774	0.014467
1.41521E-01	1.884494	0.013495
1.43184E-01	1.870570	0.013170
1.44867E-01	1.857926	0.012848
1.46569E-01	1.846461	0.012473
1.48291E-01	1.835715	0.011461
1.50033E-01	1.825345	0.010461
1.51796E-01	1.815301	0.009696
1.53580E-01	1.806031	0.009375
1.55385E-01	1.797574	0.008845
1.57210E-01	1.789443	0.008077
1.59058E-01	1.781615	0.007317
1.60927E-01	1.774066	0.006622
1.62818E-01	1.766794	0.005977
1.64731E-01	1.759819	0.005605
1.66666E-01	1.753251	0.005284
1.68625E-01	1.747022	0.005064
1.70606E-01	1.741185	0.004879
1.72611E-01	1.735693	0.004585
1.74639E-01	1.730377	0.004222
1.76691E-01	1.725237	0.003863
1.78767E-01	1.720232	0.003509
1.80868E-01	1.715417	0.003415
1.82993E-01	1.710943	0.003181
1.85143E-01	1.706562	0.002902
1.87319E-01	1.702270	0.002718
1.89520E-01	1.698188	0.002612
1.91747E-01	1.694269	0.002529
1.94000E-01	1.690533	0.002487
1.96279E-01	1.686963	0.002446
1.98586E-01	1.683542	0.002406
2.00919E-01	1.680258	0.002366
2.03280E-01	1.677103	0.002328
2.05669E-01	1.674068	0.002291
2.08085E-01	1.671147	0.002254
2.10530E-01	1.668335	0.002218
2.13004E-01	1.665624	0.002184
2.15507E-01	1.663010	0.002149
2.18039E-01	1.660489	0.002116
2.20601E-01	1.658055	0.002083
2.23193E-01	1.655706	0.002052
2.25816E-01	1.653436	0.002020
2.28469E-01	1.651243	0.001990
2.31154E-01	1.649124	0.001960
2.33870E-01	1.647074	0.001930
2.36618E-01	1.645091	0.001902
2.39398E-01	1.643172	0.001874
2.42211E-01	1.641315	0.001846
2.45057E-01	1.639517	0.001819
2.47937E-01	1.637776	0.001792
2.50850E-01	1.636089	0.001766
2.53798E-01	1.634455	0.001741
2.56780E-01	1.632871	0.001716
2.59797E-01	1.631335	0.001692
2.62850E-01	1.629846	0.001667
2.65938E-01	1.628402	0.001644
2.69063E-01	1.627002	0.001621
2.72225E-01	1.625643	0.001598
2.75424E-01	1.624324	0.001576
2.78660E-01	1.623043	0.001554
2.81934E-01	1.621800	0.001532
2.85247E-01	1.620594	0.001511
2.88599E-01	1.619422	0.001490
2.91990E-01	1.618283	0.001470
2.95421E-01	1.617178	0.001450
2.98892E-01	1.616103	0.001430
3.02404E-01	1.615059	0.001411
3.05958E-01	1.614045	0.001392
3.09553E-01	1.613058	0.001373
3.13190E-01	1.612099	0.001355
3.16870E-01	1.611167	0.001337
3.20593E-01	1.610261	0.001319
3.24360E-01	1.609379	0.001301
3.28172E-01	1.608521	0.001284
3.32028E-01	1.607687	0.001267
3.35929E-01	1.606876	0.001250
3.39876E-01	1.606086	0.001234
3.43870E-01	1.605318	0.001218
3.47911E-01	1.604570	0.001202
3.51999E-01	1.603843	0.001186
3.56135E-01	1.603134	0.001171
3.60319E-01	1.602445	0.001156
3.64553E-01	1.601773	0.001141
3.68837E-01	1.601120	0.001126
3.73171E-01	1.600483	0.001112
3.77556E-01	1.599864	0.001097
3.81992E-01	1.599260	0.001083
3.86481E-01	1.598672	0.001069
3.91022E-01	1.598100	0.001056
3.95616E-01	1.597542	0.001042
4.00265E-01	1.596999	0.001029
4.04968E-01	1.596469	0.001016
4.09727E-01	1.595954	0.001003
4.14541E-01	1.595451	0.000991
4.19412E-01	1.594962	0.000978
4.24340E-01	1.594484	0.000966
4.29326E-01	1.594019	0.000954
4.34371E-01	1.593566	0.000942
4.39475E-01	1.593124	0.000930
4.44639E-01	1.592694	0.000918
4.49864E-01	1.592274	0.000907
4.55150E-01	1.591865	0.000896
4.60498E-01	1.591466	0.000885
4.65909E-01	1.591077	0.000874
4.71383E-01	1.590698	0.000863
4.76922E-01	1.590328	0.000852
4.82526E-01	1.589968	0.000842
4.88196E-01	1.589616	0.000831
4.93932E-01	1.589274	0.000821
4.99736E-01	1.588939	0.000811
5.05608E-01	1.588613	0.000801
5.11549E-01	1.588295	0.000791
5.17560E-01	1.587985	0.000781
5.23642E-01	1.587683	0.000772
5.29795E-01	1.587388	0.000762
5.36020E-01	1.587100	0.000753
5.42318E-01	1.586819	0.000744
5.48691E-01	1.586545	0.000735
5.55138E-01	1.586278	0.000726
5.61661E-01	1.586018	0.000717
5.68261E-01	1.585763	0.000708
5.74938E-01	1.585515	0.000700
5.81693E-01	1.585273	0.000691
5.88528E-01	1.585037	0.000683
5.95444E-01	1.584807	0.000675
6.02440E-01	1.584582	0.000667
6.09519E-01	1.584362	0.000659
6.16681E-01	1.584148	0.000651
6.23927E-01	1.583939	0.000643
6.31259E-01	1.583736	0.000635
6.38676E-01	1.583537	0.000627
6.46181E-01	1.583342	0.000620
6.53774E-01	1.583153	0.000612
6.61456E-01	1.582968	0.000605
6.69228E-01	1.582788	0.000598
6.77092E-01	1.582611	0.000591
6.85048E-01	1.582439	0.000584
6.93097E-01	1.582272	0.000577
7.01241E-01	1.582108	0.000570
7.09481E-01	1.581948	0.000563
7.17818E-01	1.581792	0.000556
7.26252E-01	1.581639	0.000549
7.34786E-01	1.581491	0.000543
7.43420E-01	1.581346	0.000536
7.52155E-01	1.581204	0.000530
7.60993E-01	1.581066	0.000524
7.69935E-01	1.580931	0.000518
7.78982E-01	1.580799	0.000511
7.88135E-01	1.580670	0.000505
7.97396E-01	1.580544	0.000499
8.06766E-01	1.580422	0.000493
8.16245E-01	1.580302	0.000488
8.25836E-01	1.580185	0.000482
8.35540E-01	1.580071	0.000476
8.45358E-01	1.579959	0.000470
8.55291E-01	1.579851	0.000465
8.65341E-01	1.579744	0.000459
8.75509E-01	1.579641	0.000454
8.85796E-01	1.579539	0.000449
8.96205E-01	1.579440	0.000443
9.06735E-01	1.579344	0.000438
9.17390E-01	1.579250	0.000433
9.28169E-01	1.579158	0.000428
9.39076E-01	1.579068	0.000423
9.50110E-01	1.578980	0.000418
9.61274E-01	1.578894	0.000413
9.72569E-01	1.578811	0.000408
9.83997E-01	1.578729	0.000403
9.95560E-01	1.578649	0.000398
1.00726E+00	1.578571	0.000394
1.01909E+00	1.578495	0.000389
1.03107E+00	1.578421	0.000384
1.04318E+00	1.578348	0.000380
1.05544E+00	1.578277	0.000375
1.06784E+00	1.578208	0.000371
1.08039E+00	1.578140	0.000367
1.09308E+00	1.578074	0.000362
1.10593E+00	1.578010	0.000358
1.11892E+00	1.577947	0.000354
1.13207E+00	1.577886	0.000350
1.14537E+00	1.577826	0.000346
1.15883E+00	1.577767	0.000342
1.17245E+00	1.577710	0.000338
1.18623E+00	1.577654	0.000334
1.20016E+00	1.577599	0.000330
1.21427E+00	1.577546	0.000326
1.22853E+00	1.577494	0.000322
1.24297E+00	1.577443	0.000318
1.25757E+00	1.577393	0.000314
1.27235E+00	1.577345	0.000311
1.28730E+00	1.577297	0.000307
1.30243E+00	1.577251	0.000304
1.31773E+00	1.577206	0.000300
1.33322E+00	1.577162	0.000296
1.34888E+00	1.577119	0.000293
1.36473E+00	1.577077	0.000290
1.38077E+00	1.577035	0.000286
1.39699E+00	1.576995	0.000283
1.41341E+00	1.576956	0.000280
1.43001E+00	1.576918	0.000276
1.44682E+00	1.576880	0.000273
1.46382E+00	1.576844	0.000270
1.48102E+00	1.576808	0.000267
1.49842E+00	1.576773	0.000264
1.51603E+00	1.576739	0.000260
1.53384E+00	1.576706	0.000257
1.55186E+00	1.576673	0.000254
1.57010E+00	1.576641	0.000251
1.58855E+00	1.576610	0.000249
1.60721E+00	1.576580	0.000246
1.62610E+00	1.576551	0.000243
1.64521E+00	1.576522	0.000240
1.66454E+00	1.576494	0.000237
1.68410E+00	1.576466	0.000234
1.70389E+00	1.576439	0.000232
1.72391E+00	1.576413	0.000229
1.74416E+00	1.576387	0.000226
1.76466E+00	1.576362	0.000224
1.78539E+00	1.576337	0.000221
1.80637E+00	1.576314	0.000218
1.82760E+00	1.576290	0.000216
1.84907E+00	1.576267	0.000213
1.87080E+00	1.576245	0.000211
1.89278E+00	1.576223	0.000208
1.91502E+00	1.576202	0.000206
1.93752E+00	1.576181	0.000204
1.96029E+00	1.576161	0.000201
1.98332E+00	1.576141	0.000199
2.00663E+00	1.576122	0.000197
