Material: main / Yb / Larruquert
Optical constants. 1) J. I. Larruquert, J. A. Aznarez, J. A.Méndez, and J. Calvo-Angós. Optical properties of ytterbium films in the far and the extreme ultraviolet, Appl. Opt. 42, 4566-4572 (2003)2) M. Fernández-Perea, J. I. Larruquert, J. A. Aznárez, J. A. Méndez, L. Poletto, D. Garoli, A. M. Malvezzi, A. Giglia, and S. Nannarone. Optical constants of Yb films in the 23-1700 eV range, J. Opt. Soc. Am. A 24, 3691-3699 (2007) (Numerical data kindly provided by Juan Larruquert)
Comments: Density: 6.81 g/cm3. Film deposited at room temperature.
Specs: {"n_absolute": true, "wavelength_vacuum": true}
wavelength (um)	n	k
0.000730178	0.999710783	0.000244461
0.000731902	0.999751106	0.000265182
0.000733634	0.999765509	0.000256515
0.000735375	0.999769946	0.000255034
0.000737124	0.999773712	0.000256702
0.000738881	0.999777289	0.000259821
0.000740646	0.999782496	0.000266837
0.00074242	0.999793029	0.000273585
0.000744203	0.999805712	0.000273733
0.000745994	0.999814459	0.000272711
0.000747794	0.999826782	0.000269464
0.000749602	0.999833818	0.000262467
0.000751419	0.999837745	0.000257217
0.000753245	0.999840628	0.000257084
0.00075508	0.999852535	0.000257769
0.000756924	0.999861415	0.000244774
0.000758777	0.999855848	0.000236418
0.000760639	0.999857011	0.000238925
0.00076251	0.999858555	0.000232999
0.000764391	0.999860055	0.000240482
0.000766281	0.999873495	0.000239306
0.00076818	0.999881901	0.000232602
0.000770088	0.999888851	0.000221751
0.000772006	0.999889891	0.000211819
0.000773934	0.999890321	0.000206887
0.000775871	0.999894104	0.000199009
0.000777818	0.999893908	0.000189379
0.000779775	0.999892271	0.000184587
0.000781741	0.999894824	0.000178654
0.000783718	0.999891471	0.000167992
0.000785705	0.999887951	0.000165394
0.000787701	0.999886074	0.000161221
0.000789708	0.999884401	0.000163195
0.000791725	0.999888781	0.000157529
0.000793753	0.999887524	0.000150012
0.000795791	0.999890241	0.000147333
0.000797839	0.999895914	0.0001373
0.000799898	0.999890284	0.000127209
0.000801968	0.999885904	0.00012015
0.000804048	0.999882135	0.000122149
0.000806139	0.999891381	0.000117169
0.000808241	0.999894048	0.000102575
0.000810354	0.999889148	8.44541E-05
0.000812478	0.999876098	6.97628E-05
0.000814614	0.999860518	6.44909E-05
0.00081676	0.999847938	5.80931E-05
0.000818918	0.999831008	6.1496E-05
0.000821087	0.999825602	6.92533E-05
0.000823268	0.999823342	7.10437E-05
0.000825461	0.999821955	6.99378E-05
0.000827665	0.999816992	6.5273E-05
0.000829881	0.999811042	6.59642E-05
0.000832109	0.999805825	6.53111E-05
0.000834349	0.999801959	6.75662E-05
0.0008366	0.999803185	6.47339E-05
0.00084343	0.999783239	5.65177E-05
0.000855063	0.999754452	6.15048E-05
0.000867022	0.999735503	6.64642E-05
0.00087932	0.999717563	6.97106E-05
0.000891973	0.99969893	7.44283E-05
0.000904994	0.99968389	8.07582E-05
0.000918401	0.9996683	8.47281E-05
0.000932212	0.99965366	8.75661E-05
0.000946444	0.99963508	9.23551E-05
0.000961118	0.99962021	9.77532E-05
0.000976253	0.99960362	0.000101463
0.000991873	0.99958588	0.000106999
0.001008002	0.9995668	0.000113386
0.001024663	0.99955224	0.000121923
0.001041884	0.99953288	0.000122738
0.001059694	0.9995131	0.000134205
0.001078123	0.9994933	0.000139109
0.001097205	0.99947266	0.000145809
0.001116975	0.99945022	0.000153799
0.00113747	0.99942756	0.000163149
0.001158731	0.99940326	0.0001727
0.001180802	0.99937842	0.00018341
0.00120373	0.99935319	0.000194743
0.001227566	0.99932849	0.000207024
0.001252366	0.99930064	0.000216583
0.001278187	0.99926436	0.00022829
0.001305097	0.99923451	0.000245851
0.001333163	0.9992056	0.000257558
0.001362464	0.99915825	0.000272192
0.001393081	0.99912033	0.000298534
0.001425106	0.99909258	0.000319997
0.001458637	0.99904021	0.000342436
0.001493785	0.99899818	0.000375606
0.001530669	0.99894807	0.000394142
0.00156942	0.9989034	0.000428288
0.001610184	0.99884639	0.000460483
0.001653122	0.99879146	0.000491702
0.001698414	0.99872756	0.000547312
0.001771203	0.99865776	0.000607311
0.001823297	0.99857678	0.000647311
0.001878548	0.99850651	0.000701456
0.001937253	0.99842718	0.00078048
0.001999745	0.99834078	0.000832187
0.002066403	0.99823905	0.000925844
0.002137658	0.99816697	0.001000966
0.002214003	0.99806447	0.00110633
0.002296003	0.99796941	0.001189256
0.002384311	0.99785185	0.001320962
0.002479684	0.9977366	0.001449742
0.002583004	0.99761449	0.001597057
0.002695308	0.9974901	0.001673154
0.002817822	0.99730524	0.00192681
0.002952004	0.99715131	0.002128759
0.003099605	0.99699898	0.00237022
0.003262742	0.99680649	0.002589242
0.003444005	0.99659232	0.002895581
0.003646594	0.99643138	0.003171676
0.003874506	0.99609219	0.003488746
0.004132806	0.99572551	0.003891181
0.004275317	0.99536062	0.003960936
0.004428007	0.99533881	0.004657514
0.004592007	0.99516778	0.004937512
0.004768623	0.99497193	0.005265313
0.004959367	0.9947899	0.005680919
0.005166008	0.99460526	0.006128719
0.005390617	0.99446652	0.006648714
0.005635645	0.9943936	0.007126758
0.005904009	0.99438407	0.007574558
0.006199209	0.99436731	0.007921872
0.006525484	0.99419679	0.007907238
0.00688801	0.99360169	0.008055529
0.007293187	0.99264246	0.00862528
0.007749012	0.99184151	0.00944771
0.008265612	0.9909872	0.010384286
0.008856013	0.98999016	0.011481836
0.009537245	0.9888858	0.012624264
0.010332016	0.98734206	0.013928641
0.01127129	0.98514986	0.015655453
0.012398419	0.98268788	0.018296402
0.012523655	0.98240091	0.018244696
0.012651448	0.9820329	0.018699325
0.012781875	0.9817833	0.01894225
0.01291502	0.98144776	0.019187125
0.013050967	0.98110203	0.019246149
0.013189807	0.98067885	0.019681754
0.013331633	0.98036419	0.020046629
0.013476542	0.97995581	0.020348089
0.013624636	0.97957078	0.020620282
0.013776021	0.97916756	0.020706622
0.013930808	0.97860785	0.021216373
0.014089112	0.97818288	0.021579296
0.014251056	0.97769849	0.021858318
0.014416766	0.97715923	0.022261241
0.014586375	0.9765925	0.022603676
0.014760022	0.97603879	0.02295977
0.014937854	0.97540285	0.023442692
0.015120023	0.97473841	0.023870005
0.01530669	0.97401848	0.024358781
0.015498023	0.9732823	0.024937312
0.015694201	0.972512	0.025537306
0.015895409	0.97180546	0.026269981
0.016101843	0.97111643	0.026812415
0.016313709	0.97028216	0.027526554
0.016531225	0.96939624	0.028222157
0.01675462	0.96878127	0.029218244
0.016984135	0.9679895	0.030085553
0.017220026	0.96732197	0.030560182
0.017462562	0.96632972	0.031725536
0.017712027	0.96542911	0.03246748
0.017968723	0.96447433	0.033478202
0.018232969	0.96356496	0.034472826
0.018505103	0.96260033	0.035521596
0.018785483	0.96160266	0.036756218
0.01907449	0.96124778	0.037852304
0.019372529	0.95951036	0.038023034
0.01968003	0.95787658	0.039362533
0.01999745	0.95636816	0.04068252
0.020325277	0.95482453	0.042280553
0.020664031	0.95326377	0.043798586
0.021014269	0.95155856	0.04550296
0.021376584	0.94979726	0.047279527
0.021751612	0.94779519	0.049179996
0.022140033	0.94571433	0.051499973
0.02254258	0.94360751	0.054025801
0.022960035	0.94137581	0.056820895
0.023393243	0.93931778	0.059931108
0.023843113	0.93702021	0.063107662
0.024310625	0.93493517	0.067070549
0.024796837	0.93418311	0.071257824
0.025302895	0.92998375	0.075519245
0.025830039	0.92973139	0.079211891
0.026379614	0.92827033	0.081691866
0.026953084	0.92492164	0.08442257
0.027552042	0.91907853	0.086748401
0.028178224	0.91136474	0.090956164
0.028833532	0.89846937	0.096912202
0.02934537	0.88110284	0.1239012
0.029696811	0.89355378	0.13537133
0.030056773	0.89879658	0.13343086
0.030425567	0.89251099	0.13908544
0.030803525	0.89080204	0.14618098
0.031190991	0.88527917	0.15622966
0.031588328	0.88359944	0.17069146
0.031995919	0.88205948	0.1819772
0.032414167	0.88137023	0.1982268
0.032843493	0.88865164	0.22572116
0.033284346	0.90081784	0.24244392
0.033737194	0.92315907	0.25999838
0.034202534	0.94740631	0.25999935
0.034680892	0.96278131	0.2561311
0.035172819	0.97168736	0.25676524
0.035678903	0.98431909	0.25729694
0.036199763	0.9894499	0.2577184
0.036736056	0.99617465	0.2622364
0.037288477	1.0114434	0.27082949
0.037857767	1.0291544	0.27146948
0.038444709	1.0404605	0.26987242
0.039050138	1.0582301	0.27382751
0.03967494	1.0801707	0.26907731
0.040320061	1.1047532	0.25461306
0.040986508	1.1226715	0.22725041
0.041675357	1.1121981	0.1933288
0.042387756	1.0923312	0.18873762
0.043124935	1.0844801	0.19496293
0.043888208	1.0825126	0.20025751
0.044678986	1.0854696	0.21046521
0.045498784	1.1039085	0.22239387
0.046349229	1.1272995	0.2079989
0.047232071	1.127537	0.19314734
0.048149199	1.1298044	0.19487805
0.049102648	1.1424245	0.19662438
0.050094621	1.1646402	0.1961356
0.0511275	1.2110157	0.1849962
0.052203868	1.239602	0.089991958
0.053326532	1.180164	0.046444716
0.058401978	1.0851901	0.035
0.07350247	0.96332144	0.052
0.087902996	0.88729666	0.101
0.098603303	0.80355619	0.143
0.113503813	0.69259413	0.26
0.124404201	0.6403636	0.395
0.135704585	0.64554849	0.548
0.152502076	0.75338079	0.715
0.206606976	0.79055764	0.82
