Material: main / Er / Larruquert
Optical constants. J. I. Larruquert, F. Frassetto, S. García-Cortés, M. Vidal-Dasilva, M. Fernández-Perea, J. A. Aznárez, J. A. Méndez, L. Poletto, A. M. Malvezzi, A. Giglia, and S. Nannarone. Transmittance and optical constants of erbium films in the 3.25−1580 eV spectral range, Appl. Opt. 50, 2211-2219 (2011) (Numerical data kindly provided by Juan Larruquert)
Comments: Density: 9.066 g/cm3. Film deposited at room temperature.
Specs: {"n_absolute": true, "wavelength_vacuum": true}
wavelength (um)	n	k
0.000783614	0.99966357	0.000309323
0.000793478	0.99967181	0.000323407
0.000803589	0.99968673	0.00033632
0.000813966	0.99970945	0.000343783
0.000824615	0.99973892	0.000338437
0.000835546	0.99976734	0.000309479
0.000846811	0.99973769	0.0002655
0.000847253	0.99973417	0.000264409
0.000847729	0.99973211	0.000265372
0.000848191	0.99972958	0.000266525
0.000848649	0.99972544	0.000266979
0.00084912	0.99972207	0.000267352
0.000849591	0.99971856	0.000269991
0.000850043	0.99971348	0.00027237
0.000850519	0.99970898	0.000274789
0.000850995	0.99970263	0.000281172
0.000851447	0.9997	0.000287925
0.000851918	0.99969191	0.000294486
0.000852389	0.99967946	0.00031162
0.000852846	0.99967668	0.000346815
0.000853312	0.99970423	0.000391091
0.000853779	0.99976142	0.000413231
0.00085423	0.99982779	0.000386955
0.000854698	0.99985022	0.000319858
0.000855178	0.99982992	0.000282022
0.000855647	0.99981194	0.000267332
0.000859075	0.99977576	0.000242437
0.000863667	0.99974933	0.000210889
0.000868302	0.99969224	0.000180377
0.000870759	0.99963998	0.000171433
0.000871244	0.99962625	0.000171215
0.000871734	0.99961035	0.00017032
0.000872207	0.99959373	0.000171476
0.000872694	0.99957415	0.00017169
0.000873182	0.99955114	0.000175672
0.000873665	0.99952636	0.0001789
0.000874152	0.99949669	0.000186098
0.000874631	0.99946221	0.000195864
0.000875125	0.99941581	0.000211354
0.000875634	0.99935565	0.000241338
0.000876137	0.99929189	0.000307169
0.000876641	0.99925126	0.000381895
0.000877149	0.99917111	0.000505395
0.000877649	0.99926995	0.000689276
0.000878152	0.99923796	0.000653399
0.000878656	0.99908927	0.000951295
0.000879165	0.99943607	0.001441329
0.000879666	1.0000121	0.001292842
0.000880172	1.0000037	0.001004778
0.000880672	1.0001307	0.001255464
0.000881182	1.0006521	0.000956097
0.000881683	1.0006304	0.000503459
0.000882178	1.0004483	0.000288045
0.000882699	1.0003077	0.000214022
0.000883189	1.000217	0.000180368
0.000883698	1.00015	0.000161499
0.000884211	1.0000996	0.000150761
0.00088471	1.0000602	0.000141665
0.000885228	1.0000275	0.000137898
0.000885722	1.0000018	0.000132331
0.000886241	0.99997865	0.000130258
0.000890053	0.99987449	0.000120721
0.000895542	0.99980195	0.000116859
0.000900662	0.9997644	0.0001209
0.00090584	0.99973411	0.000118565
0.000911072	0.99971229	0.000118467
0.000916372	0.99969388	0.000123337
0.000921733	0.99966942	0.000124126
0.000927838	0.9996465	0.000116037
0.000941635	0.99962444	0.000132807
0.000955908	0.99959065	0.000148658
0.000970628	0.99956542	0.00014819
0.000985809	0.99953659	0.000147301
0.001001472	0.99951199	0.000159744
0.00101764	0.99948391	0.000167758
0.001034331	0.99946005	0.000178039
0.001051587	0.99944018	0.000183565
0.001069428	0.99940945	0.000190918
0.001087886	0.99938377	0.000199098
0.001106992	0.99935233	0.000217424
0.00112677	0.99932617	0.000225564
0.001147279	0.99929156	0.000241022
0.001168549	0.99926585	0.000259337
0.001190622	0.99924329	0.000273684
0.001213544	0.99920943	0.000281497
0.001237355	0.99917564	0.000299631
0.001262131	0.99914367	0.000312418
0.001287104	0.99911476	0.000328016
0.001313976	0.999067	0.000345243
0.001341994	0.99902987	0.000363515
0.001371218	0.99898488	0.000384845
0.001401616	0.99894355	0.000414159
0.001433542	0.99889422	0.000430594
0.001466939	0.99883877	0.000459534
0.001495623	0.99879863	0.000482115
0.001532125	0.99874375	0.000516456
0.001570454	0.99868425	0.000551387
0.001610749	0.9986199	0.000591733
0.001653167	0.99856031	0.00063585
0.001697879	0.99848676	0.000677923
0.001745076	0.99841548	0.000718815
0.001790773	0.99835049	0.000759039
0.001842836	0.99826057	0.000816685
0.001897988	0.9981636	0.000882844
0.001956574	0.99806965	0.000953251
0.002018859	0.99795744	0.001028698
0.002085275	0.99783699	0.001119799
0.002156209	0.99771008	0.001220726
0.002209348	0.99762481	0.001308611
0.002216735	0.99760985	0.001319215
0.002224131	0.99760149	0.001331578
0.002231617	0.99758626	0.001335949
0.002239113	0.99756669	0.00135116
0.002252415	0.99754832	0.001383903
0.002283402	0.9975019	0.001428294
0.002299282	0.99746659	0.00146053
0.002316033	0.99747782	0.001525251
0.002332986	0.99746817	0.00152264
0.002350188	0.99744759	0.001501931
0.002367647	0.99740348	0.001524438
0.002385412	0.99735825	0.001551133
0.0024034	0.99731341	0.001582878
0.002421661	0.99729365	0.001622747
0.002440249	0.9972609	0.001651945
0.002459077	0.99723028	0.001680417
0.002478197	0.99720267	0.001710727
0.002497617	0.99717012	0.001738533
0.002517394	0.99713794	0.001770945
0.002537436	0.99709574	0.001806424
0.002557799	0.99707648	0.001847248
0.002578545	0.99705092	0.001876906
0.002599576	0.99701554	0.001906917
0.002620953	0.99699511	0.001942886
0.002642685	0.99698845	0.001944709
0.002664837	0.99671753	0.001905389
0.002687305	0.99693734	0.002024626
0.002710155	0.99680851	0.002251258
0.002733458	0.99687087	0.002112131
0.002757104	0.99679766	0.0021378
0.002781162	0.99674506	0.002165312
0.002805643	0.99669484	0.002201132
0.002830625	0.99664596	0.002239466
0.002855989	0.99659406	0.002277347
0.002881812	0.99654497	0.002325263
0.002908106	0.99649924	0.002368465
0.002934954	0.99645237	0.002407968
0.002962231	0.99639856	0.002451053
0.00299002	0.99634659	0.002501755
0.003018409	0.99627885	0.0025459
0.003047268	0.99622735	0.002615687
0.003076683	0.99620182	0.002643513
0.003106672	0.99609957	0.00271721
0.003137331	0.99608844	0.002769621
0.00316852	0.99600194	0.002815353
0.003200335	0.99591236	0.002889821
0.00322825	0.99587535	0.002986835
0.003261197	0.99583875	0.003047582
0.003294823	0.9957739	0.003106559
0.00332915	0.99574487	0.003176389
0.003364108	0.99567774	0.003242181
0.003399901	0.99562286	0.003320351
0.003436464	0.99556046	0.003378495
0.003473822	0.99549881	0.003441402
0.003511902	0.99537229	0.003433582
0.003550928	0.99538981	0.003634521
0.00359083	0.99529808	0.003680902
0.00363164	0.99522945	0.003749859
0.003673279	0.99513037	0.003845365
0.003715995	0.99505108	0.003953996
0.003759717	0.9949901	0.004076041
0.00380448	0.99497124	0.004195711
0.003850321	0.99497012	0.004255967
0.003897158	0.99490848	0.004270352
0.003945274	0.99480271	0.004285347
0.003994593	0.99466626	0.00434821
0.004045161	0.99450403	0.004423163
0.00409689	0.99434723	0.004570977
0.004150098	0.99423336	0.00469375
0.004204707	0.99403226	0.004832725
0.00423212	0.99402822	0.005023251
0.004260625	0.9940623	0.005072234
0.004289665	0.99396267	0.005053372
0.004319104	0.99426687	0.005183479
0.004348796	0.99385738	0.004946641
0.004379055	0.99393086	0.005198979
0.004409581	0.99381479	0.005163761
0.004440694	0.99369637	0.005268628
0.00447225	0.9935754	0.005347729
0.004504094	0.99349125	0.005441269
0.00453656	0.99340364	0.005514737
0.00456933	0.99332458	0.005599448
0.004602747	0.99323767	0.005703349
0.004636656	0.99314576	0.005795362
0.004670893	0.99306429	0.005898782
0.004705818	0.99298329	0.006044974
0.004741088	0.99291944	0.006122177
0.004777074	0.99285215	0.006220875
0.004813611	0.99275783	0.006338539
0.004850522	0.99269091	0.006445775
0.004888195	0.99262005	0.00653502
0.004926263	0.99252802	0.006630997
0.004965127	0.99242968	0.006758441
0.005004609	0.99235111	0.006904199
0.005044519	0.99226931	0.007014414
0.005085279	0.99217626	0.007124093
0.005126491	0.99209242	0.007270926
0.005168592	0.99200557	0.007387138
0.00521139	0.9919091	0.007511127
0.005254681	0.99180534	0.007672287
0.005298922	0.99171336	0.007809198
0.005343685	0.99161371	0.007969521
0.005389445	0.99151131	0.008139932
0.005435996	0.99147272	0.008314084
0.005483115	0.99137475	0.008442629
0.005531304	0.99125597	0.008611021
0.005580098	0.99118085	0.008804278
0.005630015	0.99108428	0.008940718
0.005680833	0.99098934	0.009155149
0.005732313	0.99090857	0.00933101
0.005785003	0.99080931	0.009504553
0.005838396	0.99071996	0.009722769
0.005893065	0.99064279	0.009908869
0.005948766	0.99054872	0.010068193
0.00600524	0.99044374	0.010248379
0.006063093	0.99030557	0.010443314
0.006121769	0.9901649	0.010629519
0.0061819	0.99002787	0.010827217
0.006243224	0.98984387	0.011015053
0.006305456	0.98961478	0.011219995
0.006369269	0.98933372	0.011455356
0.006424717	0.98904733	0.0116942
0.006490639	0.98865388	0.012035201
0.006557581	0.98819562	0.012473423
0.006625919	0.98768471	0.013071542
0.006695695	0.98699927	0.013761656
0.006767326	0.9862582	0.014907947
0.00684013	0.98542069	0.016451957
0.006914516	0.98457895	0.019356195
0.006990538	0.98588326	0.024465409
0.007068654	0.99365702	0.027510618
0.007127986	0.99695201	0.0225904
0.007168373	0.99566119	0.021189575
0.007208802	0.99585756	0.021047189
0.007250113	0.99443458	0.020841031
0.007291472	0.99422691	0.023022275
0.007333739	0.9968687	0.026907851
0.007376499	1.0035951	0.027724795
0.007419316	1.0055419	0.018095998
0.007463082	1.0086049	0.022630924
0.007507368	1.0076395	0.012677474
0.007551723	1.0091098	0.009616049
0.00759707	1.0022973	0.00724725
0.007642494	0.99970483	0.007647686
0.007688942	0.99804113	0.008040589
0.007735957	0.99688224	0.008321947
0.007783063	0.99598136	0.008702095
0.00783124	0.99528262	0.008973664
0.007880017	0.99466471	0.0091971
0.007953823	0.99386135	0.009574951
0.008054582	0.99301248	0.009956638
0.008157928	0.99230411	0.010367567
0.008264511	0.99163435	0.010753165
0.00837335	0.99107299	0.011127145
0.008485094	0.99055222	0.011464364
0.00859986	0.99008091	0.01178848
0.008718387	0.98960237	0.01211536
0.008839597	0.98913349	0.012503011
0.008964224	0.98872841	0.012829665
0.009092416	0.98824841	0.013162896
0.009225014	0.98778118	0.013561249
0.00936083	0.9873696	0.013990025
0.009500704	0.98698819	0.014406611
0.009644822	0.98661732	0.014807584
0.009794153	0.98624055	0.015200248
0.009947383	0.98585253	0.015566907
0.010105484	0.98545308	0.015980692
0.010268692	0.98503432	0.016384317
0.010437258	0.98458727	0.016748062
0.010612359	0.98414999	0.01720365
0.010792495	0.98370998	0.01763219
0.010978853	0.98321125	0.018011595
0.01117176	0.98271963	0.018430618
0.011372609	0.98212946	0.018795461
0.011579732	0.98155047	0.019290876
0.011794538	0.98105526	0.019635443
0.012017465	0.98038653	0.020189
0.012250191	0.97926307	0.020419344
0.012490851	0.97843256	0.021094783
0.012741156	0.977571	0.021623454
0.013001698	0.97655704	0.022342467
0.013274538	0.97557363	0.02308037
0.013557593	0.97452314	0.023860749
0.013852982	0.9734498	0.024692831
0.014161529	0.97230211	0.025561542
0.014485826	0.97106883	0.026431017
0.014823552	0.96973012	0.027369541
0.015177401	0.96824652	0.028388807
0.015548556	0.96662187	0.029449344
0.015940369	0.96483907	0.030586091
0.016350282	0.96294096	0.031890872
0.016781834	0.96078371	0.033315512
0.017236784	0.95835998	0.034899277
0.017719621	0.95570524	0.03666223
0.018227608	0.95279366	0.038790122
0.01876558	0.94967836	0.041174289
0.019336274	0.94620141	0.043789195
0.019945976	0.94224951	0.046900784
0.020591959	0.93789534	0.050526828
0.021281186	0.93309674	0.054989723
0.022018147	0.9279726	0.060169273
0.022807981	0.92256507	0.066195369
0.023661104	0.91619231	0.072835744
0.024575657	0.90847617	0.081697107
0.02556375	0.90102053	0.09236422
0.026634627	0.89156511	0.10409956
0.02780538	0.87440289	0.12060966
0.028840239	0.86143256	0.15029783
0.030247423	0.86375279	0.19722378
0.031798971	0.87986063	0.25989139
0.033518299	0.94260494	0.30222392
0.035434178	0.99339895	0.28563589
0.037582354	1.0433102	0.29186969
0.040007805	1.0848896	0.23657759
0.042767916	1.0735508	0.21687979
0.045937083	1.0872476	0.21814312
0.04961352	1.1289527	0.16583728
0.053929616	1.0739835	0.080445162
0.059068217	0.99287099	0.084941198
0.065289198	0.91402029	0.10153715
0.077538579	0.79610516	0.22236206
0.112815457	0.63680629	0.71782575
0.177373659	1.1845048	1.1847596
0.382667245	1.2850447	1.8
