Material: main / Se / Campel-o
Optical constants. L. Gampel and F. M. Johnson, Index of refraction of single-crystal selenium, J. Opt. Soc. Am., 59, 72-73 (1969)
Comments: Single-crystal selenium; 23 Â°C; Ordinary ray.
wavelength (um)	n
1.06	2.790
1.15	2.737
3.39	2.65
10.6	2.64
