Material: main / Se / Campel-e
Optical constants. L. Gampel and F. M. Johnson, Index of refraction of single-crystal selenium, J. Opt. Soc. Am., 59, 72-73 (1969)
Comments: Single-crystal selenium; 23 Â°C; Extraordinary ray.
wavelength (um)	n
1.06	3.608
1.15	3.573
3.39	3.46
10.6	3.41
