Material: main / Se / Ciesielski
Optical constants. A. Ciesielski, L. Skowronski, W.Pacuski, T. Szoplik. Permittivity of Ge, Te and Se thin films in the 200â€“1500 nm spectral range. Predicting the segregation effects in silver, Mat. Sci. Semicond. Process. 81, 64-67 (2018) (Numerical data kindly provided by Arkadiusz Ciesielski)
Comments: 25 nm-thick selenium film deposited directly on SiO2 substrate
Specs: {"n_absolute": true, "wavelength_vacuum": true, "film_thickness": "25 nm", "substrate": "SiO2"}
wavelength (um)	n	k
0.20000	1.1430	0.3106
0.20065	1.1430	0.3106
0.20130	1.1419	0.3065
0.20195	1.1419	0.3065
0.20261	1.1408	0.3024
0.20328	1.1408	0.3024
0.20395	1.1408	0.3024
0.20462	1.1397	0.2983
0.20530	1.1397	0.2983
0.20598	1.1397	0.2983
0.20667	1.1403	0.2978
0.20736	1.1411	0.2962
0.20805	1.1418	0.2946
0.20875	1.1425	0.2931
0.20946	1.1431	0.2917
0.21017	1.1435	0.2903
0.21088	1.1439	0.2891
0.21160	1.1443	0.2878
0.21233	1.1445	0.2867
0.21306	1.1447	0.2857
0.21379	1.1448	0.2848
0.21453	1.1449	0.2839
0.21528	1.1450	0.2832
0.21603	1.1449	0.2826
0.21678	1.1449	0.2821
0.21754	1.1448	0.2817
0.21831	1.1448	0.2814
0.21908	1.1447	0.2813
0.21986	1.1447	0.2812
0.22064	1.1447	0.2813
0.22143	1.1447	0.2815
0.22222	1.1447	0.2818
0.22302	1.1447	0.2822
0.22383	1.1449	0.2827
0.22464	1.1451	0.2833
0.22545	1.1453	0.2840
0.22628	1.1456	0.2848
0.22711	1.1461	0.2857
0.22794	1.1466	0.2866
0.22878	1.1472	0.2876
0.22963	1.1479	0.2887
0.23048	1.1487	0.2899
0.23134	1.1496	0.2910
0.23221	1.1507	0.2922
0.23308	1.1519	0.2934
0.23396	1.1531	0.2947
0.23485	1.1545	0.2959
0.23574	1.1561	0.2971
0.23664	1.1577	0.2983
0.23755	1.1595	0.2994
0.23846	1.1613	0.3005
0.23938	1.1633	0.3016
0.24031	1.1654	0.3026
0.24125	1.1675	0.3035
0.24219	1.1698	0.3044
0.24314	1.1721	0.3051
0.24409	1.1745	0.3058
0.24506	1.1770	0.3064
0.24603	1.1795	0.3069
0.24701	1.1821	0.3072
0.24800	1.1847	0.3075
0.24900	1.1873	0.3076
0.25000	1.1899	0.3077
0.25101	1.1925	0.3076
0.25203	1.1951	0.3074
0.25306	1.1977	0.3072
0.25410	1.2003	0.3068
0.25514	1.2028	0.3063
0.25620	1.2054	0.3057
0.25726	1.2078	0.3051
0.25833	1.2101	0.3043
0.25941	1.2124	0.3035
0.26050	1.2147	0.3027
0.26160	1.2169	0.3017
0.26271	1.2189	0.3008
0.26383	1.2209	0.2997
0.26496	1.2228	0.2987
0.26609	1.2247	0.2976
0.26724	1.2264	0.2966
0.26840	1.2280	0.2955
0.26957	1.2296	0.2944
0.27074	1.2310	0.2934
0.27193	1.2325	0.2924
0.27313	1.2338	0.2914
0.27434	1.2351	0.2904
0.27556	1.2362	0.2896
0.27679	1.2374	0.2887
0.27803	1.2385	0.2879
0.27928	1.2395	0.2872
0.28054	1.2405	0.2866
0.28182	1.2415	0.2860
0.28311	1.2425	0.2855
0.28440	1.2435	0.2851
0.28571	1.2445	0.2847
0.28704	1.2454	0.2844
0.28837	1.2464	0.2842
0.28972	1.2474	0.2841
0.29108	1.2485	0.2840
0.29245	1.2496	0.2840
0.29384	1.2507	0.2840
0.29524	1.2519	0.2841
0.29665	1.2532	0.2842
0.29808	1.2545	0.2844
0.29952	1.2559	0.2846
0.30097	1.2573	0.2848
0.30244	1.2588	0.2851
0.30392	1.2604	0.2854
0.30542	1.2620	0.2856
0.30693	1.2637	0.2859
0.30846	1.2655	0.2861
0.31000	1.2674	0.2864
0.31156	1.2693	0.2866
0.31313	1.2713	0.2869
0.31472	1.2733	0.2870
0.31633	1.2754	0.2872
0.31795	1.2775	0.2873
0.31959	1.2797	0.2874
0.32124	1.2820	0.2875
0.32292	1.2842	0.2875
0.32461	1.2866	0.2875
0.32632	1.2889	0.2875
0.32804	1.2913	0.2874
0.32979	1.2938	0.2873
0.33155	1.2962	0.2871
0.33333	1.2987	0.2870
0.33514	1.3013	0.2867
0.33696	1.3038	0.2865
0.33880	1.3064	0.2862
0.34066	1.3090	0.2858
0.34254	1.3117	0.2855
0.34444	1.3144	0.2851
0.34637	1.3171	0.2847
0.34831	1.3199	0.2842
0.35028	1.3227	0.2837
0.35227	1.3255	0.2832
0.35429	1.3285	0.2826
0.35632	1.3314	0.2819
0.35838	1.3344	0.2812
0.36047	1.3374	0.2805
0.36257	1.3405	0.2797
0.36471	1.3436	0.2788
0.36686	1.3468	0.2779
0.36905	1.3500	0.2769
0.37126	1.3532	0.2758
0.37349	1.3565	0.2746
0.37576	1.3598	0.2733
0.37805	1.3632	0.2719
0.38037	1.3665	0.2705
0.38272	1.3699	0.2689
0.38509	1.3733	0.2672
0.38750	1.3767	0.2654
0.38994	1.3801	0.2635
0.39241	1.3835	0.2615
0.39490	1.3869	0.2593
0.39744	1.3902	0.2571
0.40000	1.3936	0.2547
0.40260	1.3968	0.2522
0.40523	1.4001	0.2497
0.40789	1.4032	0.2470
0.41060	1.4064	0.2442
0.41333	1.4094	0.2413
0.41611	1.4124	0.2383
0.41892	1.4154	0.2353
0.42177	1.4182	0.2322
0.42466	1.4210	0.2290
0.42759	1.4237	0.2257
0.43056	1.4263	0.2224
0.43357	1.4288	0.2190
0.43662	1.4313	0.2156
0.43972	1.4337	0.2121
0.44286	1.4360	0.2086
0.44604	1.4383	0.2050
0.44928	1.4405	0.2014
0.45255	1.4427	0.1978
0.45588	1.4448	0.1941
0.45926	1.4468	0.1904
0.46269	1.4488	0.1867
0.46617	1.4508	0.1829
0.46970	1.4528	0.1791
0.47328	1.4547	0.1752
0.47692	1.4566	0.1712
0.48062	1.4585	0.1672
0.48438	1.4604	0.1631
0.48819	1.4622	0.1588
0.49206	1.4640	0.1545
0.49600	1.4657	0.1500
0.50000	1.4673	0.1454
0.50407	1.4689	0.1406
0.50820	1.4704	0.1357
0.51240	1.4718	0.1307
0.51667	1.4730	0.1255
0.52101	1.4740	0.1201
0.52542	1.4749	0.1145
0.52991	1.4755	0.1088
0.53448	1.4759	0.1030
0.53913	1.4761	0.0970
0.54386	1.4759	0.0910
0.54867	1.4754	0.0849
0.55357	1.4746	0.0787
0.55856	1.4734	0.0726
0.56364	1.4719	0.0665
0.56881	1.4699	0.0604
0.57407	1.4677	0.0545
0.57944	1.4650	0.0487
0.58491	1.4621	0.0431
0.59048	1.4588	0.0378
0.59615	1.4552	0.0327
0.60194	1.4513	0.0279
0.60784	1.4472	0.0235
0.61386	1.4428	0.0194
0.62000	1.4383	0.0157
0.62626	1.4337	0.0124
0.63265	1.4290	0.0095
0.63918	1.4243	0.0070
0.64583	1.4196	0.0050
0.65263	1.4149	0.0033
0.65957	1.4103	0.0021
0.66667	1.4060	0.0012
0.67391	1.4018	0.0008
0.68132	1.3982	0.0007
0.68889	1.3949	0.0006
0.69663	1.3918	0.0005
0.70455	1.3890	0.0004
0.71264	1.3863	0.0004
0.72093	1.3838	0.0003
0.72941	1.3814	0.0003
0.73810	1.3791	0.0002
0.74699	1.3770	0.0002
0.75610	1.3749	0.0002
0.76543	1.3729	0.0001
0.77500	1.3710	0.0001
0.78481	1.3692	0.0001
0.79487	1.3674	0.0001
0.80519	1.3658	0.0001
0.81579	1.3641	0.0001
0.82667	1.3626	0
0.83784	1.3611	0
0.84932	1.3596	0
0.86111	1.3582	0
0.87324	1.3569	0
0.88571	1.3556	0
0.89855	1.3543	0
0.91176	1.3531	0
0.92537	1.3519	0
0.93939	1.3507	0
0.95385	1.3496	0
0.96875	1.3486	0
0.98413	1.3475	0
1.0000	1.3465	0
1.0164	1.3455	0
1.0333	1.3445	0
1.0508	1.3436	0
1.0690	1.3427	0
1.0877	1.3419	0
1.1071	1.3410	0
1.1273	1.3402	0
1.1481	1.3394	0
1.1698	1.3386	0
1.1923	1.3379	0
1.2157	1.3371	0
1.2400	1.3365	0
1.2653	1.3357	0
1.2917	1.3351	0
1.3191	1.3344	0
1.3478	1.3338	0
1.4419	1.3320	0
1.4762	1.3315	0
1.5122	1.3309	0
1.5500	1.3304	0
1.5897	1.3299	0
1.6316	1.3294	0
1.6757	1.3289	0
1.7222	1.3285	0
1.7714	1.3280	0
1.8235	1.3276	0
1.8788	1.3272	0
1.9375	1.3268	0
2.0000	1.3264	0
