Material: main / InP / Aspnes
Optical constants. D. E. Aspnes and A. A. Studna. Dielectric functions and optical parameters of Si, Ge, GaP, GaAs, GaSb, InP, InAs, and InSb from 1.5 to 6.0 eV, Phys. Rev. B 27, 985-1009 (1983)
Comments: Crysal orientation: ; Undoped; Room temperature
wavelength (um)	n	k
0.2066	1.336	2.113
0.2101	1.301	2.183
0.2138	1.299	2.280
0.2175	1.325	2.383
0.2214	1.375	2.484
0.2254	1.426	2.562
0.2296	1.455	2.652
0.2339	1.482	2.802
0.2384	1.558	3.016
0.2431	1.745	3.291
0.2480	2.131	3.495
0.2530	2.546	3.514
0.2583	2.984	3.517
0.2638	3.560	3.223
0.2695	3.800	2.637
0.2755	3.697	2.186
0.2818	3.527	1.948
0.2883	3.384	1.826
0.2952	3.275	1.762
0.3024	3.196	1.735
0.3100	3.141	1.730
0.3179	3.108	1.744
0.3263	3.095	1.773
0.3351	3.103	1.816
0.3444	3.133	1.872
0.3542	3.193	1.948
0.3647	3.299	2.060
0.3757	3.576	2.209
0.3875	3.976	2.143
0.3999	4.415	1.735
0.4133	4.395	1.247
0.4275	4.256	0.964
0.4428	4.121	0.786
0.4592	4.004	0.667
0.4769	3.903	0.579
0.4959	3.818	0.511
0.5166	3.745	0.457
0.5391	3.682	0.416
0.5636	3.629	0.380
0.5904	3.585	0.347
0.6199	3.549	0.317
0.6525	3.517	0.293
0.6888	3.492	0.270
0.7293	3.476	0.242
0.7749	3.467	0.218
0.8266	3.456	0.203
