Material: main / Bi / Hagemann
Optical constants. 1) H.-J. Hagemann, W. Gudat, and C. Kunz. Optical constants from the far infrared to the x-ray region: Mg, Al, Cu, Ag, Au, Bi, C, and Al2O3, J. Opt. Soc. Am. 65, 742-744 (1975)2) H.-J. Hagemann, W. Gudat, and C. Kunz. DESY report SR-74/7 (1974)
wavelength (um)	n	k
2.480E-06	1.000E+00	2.02E-11
4.133E-06	1.000E+00	1.19E-10
1.240E-05	1.000E+00	5.71E-09
1.378E-05	1.000E+00	7.13E-09
1.459E-05	1.000E+00	2.56E-09
2.480E-05	1.000E+00	1.60E-08
4.133E-05	1.000E+00	9.48E-08
6.199E-05	1.000E+00	4.13E-07
8.266E-05	1.000E+00	7.04E-07
8.856E-05	1.000E+00	9.36E-07
9.537E-05	1.000E+00	4.95E-07
1.033E-04	1.000E+00	6.63E-07
1.240E-04	1.000E+00	1.21E-06
1.550E-04	1.000E+00	2.64E-06
2.066E-04	1.000E+00	7.69E-06
3.100E-04	1.000E+00	2.93E-05
3.542E-04	1.000E+00	4.50E-05
3.757E-04	1.000E+00	5.23E-05
3.875E-04	1.000E+00	5.42E-05
3.999E-04	1.000E+00	5.18E-05
4.133E-04	1.000E+00	5.57E-05
4.428E-04	1.000E+00	6.92E-05
4.769E-04	1.000E+00	6.67E-05
4.959E-04	1.000E+00	7.39E-05
5.061E-04	1.000E+00	6.45E-05
5.166E-04	1.000E+00	3.34E-05
5.636E-04	1.000E+00	4.54E-05
6.199E-04	1.000E+00	6.27E-05
6.888E-04	1.000E+00	8.82E-05
7.749E-04	1.000E+00	1.29E-04
8.856E-04	9.990E-01	1.98E-04
9.537E-04	9.990E-01	2.56E-04
1.033E-03	9.990E-01	3.29E-04
1.127E-03	9.990E-01	4.34E-04
1.240E-03	9.990E-01	5.79E-04
1.305E-03	9.990E-01	7.01E-04
1.378E-03	9.990E-01	8.39E-04
1.459E-03	9.990E-01	9.73E-04
1.550E-03	9.990E-01	1.12E-03
1.653E-03	9.980E-01	1.26E-03
1.771E-03	9.980E-01	1.45E-03
1.907E-03	9.980E-01	1.64E-03
2.066E-03	9.980E-01	1.88E-03
2.254E-03	9.980E-01	2.14E-03
2.480E-03	9.980E-01	2.45E-03
2.583E-03	9.980E-01	2.59E-03
2.695E-03	9.970E-01	2.76E-03
2.818E-03	9.970E-01	2.94E-03
2.952E-03	9.970E-01	3.14E-03
3.100E-03	9.970E-01	3.35E-03
3.179E-03	9.970E-01	3.45E-03
3.263E-03	9.970E-01	3.55E-03
3.351E-03	9.970E-01	3.65E-03
3.444E-03	9.970E-01	3.76E-03
3.542E-03	9.970E-01	3.87E-03
3.647E-03	9.970E-01	3.98E-03
3.757E-03	9.970E-01	4.05E-03
3.875E-03	9.970E-01	4.11E-03
3.999E-03	9.970E-01	4.16E-03
4.133E-03	9.970E-01	4.18E-03
4.275E-03	9.970E-01	4.17E-03
4.428E-03	9.960E-01	4.12E-03
4.592E-03	9.960E-01	4.03E-03
4.769E-03	9.960E-01	3.64E-03
4.959E-03	9.960E-01	3.15E-03
5.166E-03	9.950E-01	2.93E-03
5.391E-03	9.940E-01	2.85E-03
5.636E-03	9.930E-01	2.79E-03
5.904E-03	9.910E-01	2.79E-03
6.199E-03	9.900E-01	2.83E-03
6.525E-03	9.880E-01	2.99E-03
6.888E-03	9.860E-01	3.31E-03
7.293E-03	9.840E-01	3.81E-03
7.749E-03	9.800E-01	4.48E-03
8.266E-03	9.760E-01	6.03E-03
8.551E-03	9.740E-01	7.26E-03
8.856E-03	9.720E-01	8.67E-03
9.184E-03	9.690E-01	1.04E-02
9.537E-03	9.660E-01	1.22E-02
9.919E-03	9.640E-01	1.43E-02
1.033E-02	9.600E-01	1.70E-02
1.078E-02	9.560E-01	2.05E-02
1.127E-02	9.530E-01	2.51E-02
1.181E-02	9.490E-01	3.00E-02
1.240E-02	9.450E-01	3.59E-02
1.305E-02	9.400E-01	4.37E-02
1.378E-02	9.350E-01	5.36E-02
1.459E-02	9.330E-01	6.71E-02
1.550E-02	9.320E-01	8.07E-02
1.653E-02	9.330E-01	9.85E-02
1.771E-02	9.420E-01	1.20E-01
1.907E-02	9.550E-01	1.32E-01
2.066E-02	9.660E-01	1.51E-01
2.101E-02	9.700E-01	1.55E-01
2.138E-02	9.750E-01	1.59E-01
2.175E-02	9.810E-01	1.62E-01
2.214E-02	9.870E-01	1.65E-01
2.254E-02	9.930E-01	1.67E-01
2.296E-02	1.000E+00	1.67E-01
2.339E-02	1.007E+00	1.68E-01
2.384E-02	1.014E+00	1.67E-01
2.431E-02	1.022E+00	1.67E-01
2.480E-02	1.027E+00	1.60E-01
2.583E-02	1.033E+00	1.52E-01
2.695E-02	1.036E+00	1.49E-01
2.818E-02	1.041E+00	1.44E-01
2.952E-02	1.048E+00	1.42E-01
3.100E-02	1.051E+00	1.31E-01
3.263E-02	1.046E+00	1.20E-01
3.444E-02	1.038E+00	1.14E-01
3.647E-02	1.027E+00	1.09E-01
3.757E-02	1.020E+00	1.08E-01
3.875E-02	1.009E+00	1.08E-01
3.999E-02	9.970E-01	1.15E-01
4.133E-02	9.870E-01	1.27E-01
4.203E-02	9.880E-01	1.38E-01
4.275E-02	9.910E-01	1.43E-01
4.350E-02	9.870E-01	1.49E-01
4.428E-02	9.980E-01	1.72E-01
4.509E-02	1.035E+00	1.50E-01
4.592E-02	1.011E+00	1.28E-01
4.679E-02	9.980E-01	1.38E-01
4.769E-02	9.990E-01	1.46E-01
4.862E-02	1.001E+00	1.52E-01
4.959E-02	1.004E+00	1.68E-01
5.061E-02	1.070E+00	1.83E-01
5.166E-02	1.065E+00	7.39E-02
5.276E-02	1.013E+00	6.09E-02
5.391E-02	9.810E-01	6.22E-02
5.636E-02	9.360E-01	7.17E-02
6.199E-02	8.560E-01	1.03E-01
6.888E-02	7.630E-01	1.68E-01
7.749E-02	6.920E-01	2.93E-01
8.856E-02	6.400E-01	4.56E-01
1.033E-01	6.270E-01	6.81E-01
1.240E-01	7.100E-01	9.68E-01
1.550E-01	9.040E-01	1.30E+00
2.066E-01	1.364E+00	1.54E+00
2.480E-01	1.482E+00	1.52E+00
3.100E-01	1.517E+00	1.70E+00
3.542E-01	1.541E+00	1.85E+00
4.133E-01	1.556E+00	2.27E+00
4.959E-01	1.865E+00	2.67E+00
6.199E-01	2.244E+00	3.10E+00
8.266E-01	2.861E+00	3.89E+00
1.240E+00	5.036E+00	4.84E+00
1.550E+00	6.247E+00	4.52E+00
2.066E+00	7.466E+00	3.87E+00
3.100E+00	8.572E+00	2.21E+00
6.199E+00	6.908E+00	1.47E+00
