Material: main / MoTe2 / Beal
Optical constants. A. R. Beal and H. P. Huges. Kramers-Kronig analysis of the reflectivity spectra of 2H-MoS2, 2H-MoSe2, and 2H-MoTe2, J. Phys. C 12, 881 (1979)
wavelength (um)	n	k
6.911E-2	5.384E-1	5.143E-1
8.070E-2	5.770E-1	8.162E-1
9.228E-2	6.574E-1	1.045E+0
1.039E-1	7.485E-1	1.229E+0
1.155E-1	8.149E-1	1.415E+0
1.270E-1	1.042E+0	1.591E+0
1.386E-1	1.423E+0	1.689E+0
1.502E-1	1.670E+0	1.423E+0
1.618E-1	1.504E+0	1.115E+0
1.734E-1	1.312E+0	1.153E+0
1.850E-1	1.132E+0	1.375E+0
1.966E-1	1.088E+0	1.672E+0
2.082E-1	1.202E+0	2.015E+0
2.197E-1	1.382E+0	2.211E+0
2.313E-1	1.583E+0	2.331E+0
2.429E-1	1.793E+0	2.341E+0
2.545E-1	2.002E+0	2.329E+0
2.661E-1	2.132E+0	2.262E+0
2.777E-1	2.245E+0	2.181E+0
2.893E-1	2.276E+0	2.213E+0
3.008E-1	2.315E+0	2.253E+0
3.124E-1	2.453E+0	2.361E+0
3.240E-1	2.593E+0	2.409E+0
3.356E-1	2.705E+0	2.432E+0
3.472E-1	2.814E+0	2.457E+0
3.588E-1	3.015E+0	2.350E+0
3.704E-1	3.097E+0	2.251E+0
3.820E-1	3.114E+0	2.203E+0
3.935E-1	3.147E+0	2.200E+0
4.051E-1	3.182E+0	2.198E+0
4.167E-1	3.241E+0	2.233E+0
4.283E-1	3.300E+0	2.269E+0
4.399E-1	3.485E+0	2.189E+0
4.515E-1	3.567E+0	2.161E+0
4.631E-1	3.641E+0	2.140E+0
4.747E-1	3.716E+0	2.121E+0
4.862E-1	3.792E+0	2.101E+0
4.978E-1	3.926E+0	2.052E+0
5.094E-1	4.024E+0	1.968E+0
5.210E-1	4.056E+0	1.868E+0
5.326E-1	4.051E+0	1.673E+0
5.442E-1	4.040E+0	1.599E+0
5.558E-1	3.982E+0	1.543E+0
5.673E-1	3.936E+0	1.520E+0
5.789E-1	3.914E+0	1.520E+0
5.905E-1	3.893E+0	1.519E+0
6.021E-1	3.877E+0	1.529E+0
6.137E-1	3.876E+0	1.551E+0
6.253E-1	3.900E+0	1.563E+0
6.369E-1	3.924E+0	1.576E+0
6.485E-1	3.948E+0	1.588E+0
6.600E-1	3.976E+0	1.600E+0
6.716E-1	4.036E+0	1.611E+0
6.832E-1	4.095E+0	1.622E+0
6.948E-1	4.153E+0	1.633E+0
7.064E-1	4.211E+0	1.644E+0
7.180E-1	4.276E+0	1.638E+0
7.296E-1	4.360E+0	1.617E+0
7.412E-1	4.444E+0	1.597E+0
7.527E-1	4.517E+0	1.553E+0
7.643E-1	4.558E+0	1.426E+0
7.759E-1	4.613E+0	1.365E+0
7.875E-1	4.615E+0	1.320E+0
7.991E-1	4.617E+0	1.275E+0
8.107E-1	4.620E+0	1.229E+0
8.223E-1	4.624E+0	1.184E+0
8.338E-1	4.609E+0	1.143E+0
8.454E-1	4.590E+0	1.103E+0
8.570E-1	4.582E+0	1.110E+0
8.686E-1	4.583E+0	1.156E+0
8.802E-1	4.668E+0	1.056E+0
8.918E-1	4.776E+0	9.488E-1
9.034E-1	4.783E+0	8.653E-1
9.150E-1	4.793E+0	7.936E-1
9.265E-1	4.782E+0	7.253E-1
9.381E-1	4.767E+0	6.601E-1
9.497E-1	4.755E+0	6.114E-1
9.613E-1	4.743E+0	5.624E-1
9.729E-1	4.731E+0	5.131E-1
9.845E-1	4.699E+0	4.655E-1
9.961E-1	4.659E+0	4.500E-1
1.008E+0	4.618E+0	4.344E-1
1.019E+0	4.577E+0	4.185E-1
1.031E+0	4.535E+0	4.023E-1
1.042E+0	4.494E+0	3.981E-1
1.054E+0	4.477E+0	3.995E-1
1.066E+0	4.466E+0	4.005E-1
1.077E+0	4.454E+0	4.015E-1
1.089E+0	4.443E+0	4.026E-1
1.100E+0	4.412E+0	4.194E-1
1.112E+0	4.381E+0	4.469E-1
1.124E+0	4.359E+0	4.739E-1
1.135E+0	4.393E+0	4.947E-1
1.147E+0	4.427E+0	5.152E-1
1.158E+0	4.461E+0	5.354E-1
1.170E+0	4.492E+0	5.277E-1
1.181E+0	4.517E+0	4.747E-1
1.193E+0	4.542E+0	4.222E-1
1.205E+0	4.568E+0	3.703E-1
1.216E+0	4.595E+0	3.189E-1
