Material: main / B4C / Larruquert
Optical constants. J. I. Larruquert, A. P. Pérez-Marín, S. García-Cortés, L. Rodríguez-de Marcos, J. A. Aznárez, J. A. Méndez. Self-consistent optical constants of sputter-deposited B4C thin films, J. Opt. Soc. Am. A 29, 117-123 (2012) (Numerical data kindly provided by Juan Larruquert)
Comments: Density: 2.28 g/cm3. Film deposited at room temperature.
Specs: {"n_absolute": true, "wavelength_vacuum": true}
wavelength (um)	n	k
0.001737709	0.99905711	0.000132914
0.001747679	0.99904823	0.000135851
0.001757659	0.99903653	0.000138395
0.0017677	0.99902482	0.000141444
0.00177771	0.99901546	0.000143945
0.00178769	0.99900387	0.000148228
0.001797681	0.99899234	0.000148057
0.001807711	0.99898049	0.000151396
0.001817691	0.99897099	0.000156627
0.001827682	0.99896051	0.000158287
0.001837692	0.99894671	0.000158149
0.001847702	0.99893818	0.000163301
0.001857713	0.99892465	0.000166702
0.001867693	0.99891355	0.000168655
0.001877693	0.99890321	0.000172658
0.001887714	0.99889037	0.000176642
0.001897694	0.99887916	0.000179862
0.001907724	0.99886591	0.000180577
0.001917685	0.99885636	0.00018893
0.001927685	0.99884274	0.000191325
0.001937705	0.99883292	0.00019528
0.001947686	0.99881998	0.000196731
0.001957666	0.99880875	0.000198825
0.001967676	0.99879651	0.000204733
0.001977717	0.99878562	0.000208206
0.001987667	0.99877521	0.000212902
0.001997697	0.99876369	0.000214396
0.002007688	0.99875064	0.000214331
0.002017698	0.99873862	0.000223627
0.002027698	0.99872735	0.000228141
0.002037709	0.99871407	0.000231557
0.002047689	0.9987017	0.000235087
0.002057729	0.99868987	0.000243016
0.00206768	0.99867885	0.000242028
0.00207772	0.99866571	0.000244595
0.002087711	0.99865309	0.000253962
0.002097681	0.99864407	0.000256208
0.002107721	0.99863207	0.000258135
0.002117702	0.99861838	0.000266641
0.002127712	0.9986056	0.000266743
0.002137672	0.99859743	0.000271743
0.002147713	0.99858467	0.000273675
0.002157683	0.99858012	0.000283484
0.002175183	0.99854592	0.000281993
0.002195284	0.99851956	0.000290355
0.002215255	0.99849175	0.000298314
0.002235295	0.99845736	0.00031205
0.002255296	0.99843102	0.000340807
0.002275257	0.99842848	0.000365425
0.002295298	0.99843895	0.000356231
0.002315288	0.99842531	0.000351804
0.002335259	0.9983696	0.000318404
0.00235528	0.9983286	0.000329056
0.00237526	0.99829321	0.000337688
0.002395261	0.9982593	0.000348551
0.002415272	0.99822735	0.000359789
0.002435292	0.99819481	0.000370784
0.002455283	0.99816345	0.000382987
0.002475274	0.99813238	0.000393054
0.002495294	0.99810068	0.000404974
0.002515265	0.99807074	0.000416964
0.002535286	0.99803808	0.000427949
0.002555266	0.99800625	0.00044081
0.002575297	0.99797497	0.000453942
0.002595308	0.9979437	0.000467492
0.002615298	0.99791275	0.000478524
0.002635269	0.99787945	0.000493383
0.00265531	0.99784857	0.000505794
0.0026753	0.9978158	0.00052107
0.002695291	0.99778501	0.000530351
0.002715262	0.99775275	0.000547164
0.002735282	0.99771723	0.000560186
0.002755273	0.99768289	0.000575128
0.002775284	0.99764554	0.000586044
0.002795304	0.99760313	0.00060528
0.002830486	0.9975595	0.000655571
0.002870477	0.9975032	0.000686906
0.002910538	0.9974435	0.00071484
0.00295053	0.99737045	0.000753528
0.002990521	0.99730812	0.000791485
0.003030512	0.99724703	0.000819645
0.003070434	0.99718462	0.000851446
0.003110525	0.99711729	0.000892074
0.003150446	0.99704154	0.000931075
0.003190508	0.99696737	0.000972486
0.003230499	0.99689992	0.00101431
0.00327052	0.99683066	0.00106451
0.003310542	0.99676574	0.00111505
0.003350563	0.99669928	0.00116626
0.003390555	0.99663781	0.00121602
0.003430516	0.99657853	0.00126636
0.003470447	0.99651273	0.00131681
0.003510499	0.99645189	0.00136093
0.00355052	0.99638799	0.00140782
0.003590511	0.99632432	0.00146597
0.003630563	0.99626055	0.00151746
0.003670494	0.9961952	0.00157384
0.003710515	0.99612984	0.00162473
0.003750597	0.99606444	0.00167845
0.003790558	0.99598932	0.00174507
0.003830459	0.99592829	0.00181317
0.003870541	0.99587077	0.00189097
0.003910472	0.99582422	0.00195959
0.003950533	0.99578416	0.00200738
0.003990475	0.99572188	0.00205162
0.004030536	0.99561028	0.00209533
0.004070498	0.99547407	0.00221343
0.004110509	0.9953803	0.00246108
0.00415051	0.99551921	0.00275265
0.004190542	0.99573483	0.00276907
0.004230593	0.99587601	0.00266237
0.004270564	0.99584932	0.00248654
0.004310496	0.99579759	0.00253369
0.004350537	0.99583171	0.00227174
0.004390518	0.99553393	0.00211864
0.004460621	0.99523082	0.00232501
0.004540743	0.99500575	0.00250354
0.004620736	0.99483857	0.00268209
0.004700699	0.99471071	0.00284784
0.004780741	0.99458693	0.00299512
0.004860774	0.99445829	0.00314819
0.004940787	0.99434599	0.00331275
0.0050207	0.99425704	0.00346395
0.005100702	0.99417521	0.0035867
0.005180725	0.99406934	0.00366995
0.005260768	0.99389665	0.0037587
0.00534076	0.99367662	0.00389812
0.005420783	0.99343674	0.00409962
0.005500726	0.99324618	0.00438358
0.005580749	0.99310198	0.00468752
0.005660781	0.99299483	0.00494763
0.005740804	0.99278808	0.00513785
0.005820827	0.9923423	0.00543944
0.005900809	0.99165623	0.00619221
0.005980762	0.99124576	0.00789029
0.006060785	0.99229966	0.0100146
0.006140837	0.99443554	0.0109926
0.0062208	0.99646933	0.0110213
0.006300813	0.99861164	0.0104749
0.006380745	0.99997854	0.00864615
0.006460808	1.0006724	0.00811766
0.006540841	1.0036289	0.00550757
0.006620824	1.0010091	0.000773996
0.006700836	0.99863159	0.000683291
0.006780839	0.9974318	0.000699894
0.006970225	0.9956339	0.000684487
0.007130241	0.99455774	0.000737933
0.007290226	0.99367559	0.000792453
0.007450252	0.99288423	0.00083974
0.007610267	0.99215871	0.000899561
0.007770282	0.991478	0.000961696
0.007930268	0.99081889	0.00101481
0.008090273	0.99017687	0.00108015
0.008250269	0.98954462	0.00114918
0.008410274	0.98891528	0.00120847
0.008780316	0.98750635	0.00137651
0.009068276	0.98638701	0.00150274
0.009356306	0.98524486	0.00161887
0.009644295	0.98409688	0.0017579
0.009932326	0.9829211	0.00190658
0.010220346	0.98170562	0.00206371
0.010508355	0.98048966	0.00220849
0.010796365	0.97923157	0.00238077
0.011198378	0.97742265	0.00260486
0.011300982	0.97692883	0.00267651
0.011401385	0.9764481	0.00275103
0.011501489	0.97597979	0.00282592
0.011601491	0.97549957	0.00290505
0.011701395	0.97502223	0.00297946
0.011801399	0.97453979	0.00305858
0.011901301	0.9740544	0.00314936
0.012001505	0.97356715	0.00322015
0.012101409	0.97308172	0.00332114
0.012201412	0.97259181	0.00340598
0.012301316	0.97210582	0.00348553
0.012401619	0.97160099	0.00357395
0.012498722	0.97112892	0.00364948
0.012701729	0.97008592	0.00382165
0.012902036	0.96905464	0.00401897
0.013101942	0.96800024	0.00420838
0.013301949	0.96694878	0.00439305
0.013502056	0.96587153	0.00457912
0.013701863	0.96479053	0.00479156
0.01390217	0.9636745	0.00499072
0.014101976	0.96255901	0.0051906
0.014302083	0.96143466	0.00538825
0.01450199	0.96025021	0.00561978
0.014702097	0.95907833	0.0058624
0.014902003	0.95792338	0.00606996
0.01510191	0.95666907	0.00629364
0.015302017	0.95546069	0.00655326
0.015501924	0.95422539	0.00677912
0.01570213	0.95296473	0.00705779
0.015902037	0.95167884	0.00731504
0.016102144	0.9503489	0.00758422
0.016302051	0.94904821	0.00787266
0.016502057	0.94777246	0.00815728
0.016701964	0.94641184	0.00835073
0.016901971	0.94507008	0.00868157
0.017102278	0.94361073	0.00902733
0.017295984	0.94234548	0.009169
0.017703198	0.93926383	0.00989592
0.018103811	0.93623041	0.0105704
0.018504525	0.93315488	0.0113595
0.018904038	0.93002334	0.0122119
0.019304252	0.92682833	0.0130927
0.019704165	0.92353155	0.0140054
0.020104379	0.9202197	0.0150198
0.020503892	0.91685285	0.0160661
0.020904106	0.91344031	0.0171785
0.02130412	0.90996235	0.0183538
0.021704833	0.90643247	0.0195509
0.022104047	0.90286489	0.020813
0.02250406	0.89927751	0.0220867
0.022904273	0.8956272	0.0234514
0.023303987	0.89191806	0.0247352
0.023704001	0.88809568	0.026131
0.024103714	0.88428942	0.0276067
0.024504428	0.88040809	0.0289932
0.024904641	0.87653104	0.0304788
0.025304355	0.87247657	0.0319496
0.025704568	0.86830467	0.0334664
0.026104581	0.86411312	0.0350158
0.026504095	0.85981213	0.036621
0.026904308	0.85544029	0.0382753
0.027304322	0.8509409	0.0399029
0.027704736	0.84628405	0.0416111
0.028104449	0.84147374	0.043376
0.028504263	0.83657831	0.0453431
0.028904176	0.83172521	0.0473011
0.029304389	0.82664087	0.0493764
0.029704103	0.82137814	0.0515414
0.030104617	0.8159191	0.0542606
0.03050453	0.81109173	0.0565689
0.030904743	0.80595977	0.0592246
0.031304258	0.80060791	0.0615309
0.031704771	0.79532535	0.0641418
0.032104485	0.78959932	0.0665955
0.032504698	0.78366645	0.06937
0.032904211	0.77803607	0.0724602
0.033304625	0.77237967	0.0752925
0.033704638	0.76657939	0.0784875
0.034104852	0.76000828	0.0813773
0.034504166	0.75404294	0.084691
0.034904579	0.74734313	0.0881928
0.035304592	0.74141731	0.0922312
0.035704306	0.73617234	0.0953658
0.036103819	0.72847292	0.0986877
0.036504233	0.72198136	0.104963
0.036905047	0.71549505	0.106249
0.03730436	0.70872471	0.109822
0.037704873	0.702719	0.11557
0.038104687	0.69534169	0.118783
0.038505401	0.687175	0.123897
0.038904413	0.67992503	0.128495
0.039304827	0.67447753	0.132229
0.039705041	0.66423754	0.13629533
0.040104754	0.65650874	0.14067767
0.040504568	0.64713595	0.144959
0.049471058	0.47727774	0.40312675
0.067202269	0.56548039	0.9419
0.092003107	0.89591042	1.3805
0.116203928	1.4152583	1.7178
0.140304739	1.8391299	1.7399
0.183864919	2.3714873	1.6305214
0.199046723	2.529583	1.578623
0.21137714	2.6197086	1.5126169
0.223697557	2.6958045	1.4659018
0.23602797	2.7812843	1.4290133
0.248348388	2.8765733	1.3876586
0.260678802	2.979005	1.3079241
0.273009223	3.0270447	1.1983032
0.285339638	3.0425312	1.124572
0.297660054	3.061814	1.0668665
0.309990468	3.0753112	1.0142934
0.322310882	3.0809211	0.9668343
0.334631304	3.0971351	0.93513637
0.346971716	3.107575	0.90107075
0.359292132	3.1257475	0.87373785
0.371612552	3.1429499	0.82207808
0.383942967	3.1323698	0.79001228
0.39627339	3.1308603	0.7690293
0.4086038	3.1355566	0.7529771
0.420934219	3.140852	0.73333523
0.433254631	3.1459438	0.71847698
0.445575042	3.1537439	0.70327662
0.457895472	3.1617534	0.68839025
0.470225889	3.1709617	0.6731642
0.482566304	3.1793788	0.65697478
0.494886719	3.1867842	0.64137647
0.507217137	3.1943148	0.62636173
0.519547546	3.2013251	0.61075945
0.531867962	3.2079802	0.59623085
0.544198373	3.2137036	0.5816115
0.556508792	3.2193474	0.56762258
0.568839205	3.2244631	0.55359243
0.58117962	3.2293917	0.54046297
0.593510037	3.2338727	0.52696853
0.605830471	3.2379426	0.51411515
0.618150862	3.2420111	0.50161714
0.630471307	3.2457727	0.48871505
0.642801722	3.247957	0.47633385
0.655132127	3.250363	0.4647368
0.667472549	3.2526268	0.45383407
0.679762951	3.2550031	0.4432304
0.692093368	3.2564951	0.43257184
0.704443803	3.2584943	0.42212369
0.71674419	3.2605995	0.41223141
0.729094617	3.2615427	0.40291981
0.741435063	3.2624372	0.39338331
0.753735478	3.2643906	0.38401037
0.766075882	3.2651148	0.37603652
0.778386299	3.2651275	0.3660093
0.790696722	3.2657811	0.35745435
0.803037133	3.2658503	0.34919558
0.815397533	3.2638754	0.34140883
0.827697955	3.2675823	0.33990745
0.840038377	3.2689761	0.32812859
0.852338758	3.2665033	0.32111239
0.864699212	3.2650369	0.31510625
0.876989614	3.2643585	0.31234633
0.889320031	3.2674995	0.30528751
0.901680426	3.2693817	0.29843855
0.913970864	3.2718759	0.29488651
0.926331264	3.2689769	0.28269213
0.938671691	3.2693007	0.27757847
0.950982106	3.2703781	0.27154717
1.011108587	3.2664471	0.24594236
1.137113766	3.259686	0.2026127
1.221427872	3.2553361	0.17511903
1.338913016	3.2503648	0.14991094
1.453325577	3.24706	0.12297858
1.644212642	3.2299894	0.086445342
1.837910179	3.2110812	0.064969582
2.054426298	3.1953873	0.050288885
2.429650062	3.1759146	0.035542688
2.919647745	3.1589811	0.025465097
3.508465264	3.1440746	0.018244855
4.210417863	3.1246674	0.019255941
4.853639883	3.1181008	0.019255941
5.834224378	3.0846335	0.028301987
6.17304738	3.003439	0.07167016
6.309361036	3.0485612	0.2610739
6.349421444	3.1581193	0.2745244
6.493725472	3.2343962	0.07727957
6.673694358	3.1780608	0.02553225
6.849546405	3.1485927	0.01509159
7.042490974	3.127239	0.01188952
7.246621558	3.1088904	0.01162068
7.468926054	3.089684	0.01335871
7.692567978	3.0684166	0.01722577
7.936775993	3.0397202	0.02517096
8.285283969	2.9783143	0.0522597
8.643333668	2.8623178	0.1552178
8.889189112	2.7997208	0.4303857
9.049940689	3.0408709	0.7217195
9.153627232	3.3435915	0.6992224
9.30263907	3.5313017	0.4244886
9.434280897	3.5144315	0.2544548
9.578867577	3.4636152	0.1566217
9.727954247	3.4172356	0.1037194
9.881756671	3.3801712	0.07299358
10.10135126	3.341954	0.04857438
10.73456261	3.2820167	0.02164866
11.37469401	3.2526054	0.01277318
12.00040491	3.2357515	0.008805243
13.00043904	3.2196759	0.005723277
15.00050669	3.2035901	0.003284638
17.00057412	3.1955793	0.002295948
19.0006416	3.1908736	0.001771988
