Material: main / Lu / Garcia-Cortes
Optical constants. S. García-Cortés, L. Rodríguez-de Marcos, J. I. Larruquert, J. A. Aznárez, J. A. Méndez, L. Poletto, F. Frassetto, A. M. Malvezzi, A. Giglia, N. Mahne and S. Nannarone. Transmittance and optical constants of Lu films in the 3-1800 eV spectral range, J. Appl. Phys. 108, 063514 (2010) (Numerical data kindly provided by Juan Larruquert)
Comments: Density: 9.84 g/cm3. Film deposited at room temperature.
Specs: {"n_absolute": true, "wavelength_vacuum": true}
wavelength (um)	n	k
8.26561E-08	1	1.23546E-16
4.13281E-07	1	3.18586E-14
2.0664E-06	1	8.21529E-12
5.22075E-06	0.99999997	1.94035E-10
7.7911E-06	0.99999994	7.43907E-10
1.16269E-05	0.99999987	3.07179E-09
1.73513E-05	0.99999971	1.29303E-08
1.98284E-05	0.99999962	4.49383E-09
2.76806E-05	0.99999917	1.49711E-08
4.13281E-05	0.99999814	0.00000006
4.275E-05	0.99999801	0.00000007
4.4221E-05	0.9999979	0.00000008
4.57425E-05	0.99999778	0.00000009
4.73164E-05	0.99999767	0.00000011
4.89444E-05	0.99999752	0.00000012
5.06284E-05	0.99999734	0.00000014
5.23704E-05	0.99999716	0.00000016
5.41723E-05	0.99999696	0.00000018
5.60363E-05	0.99999674	0.0000002
5.79643E-05	0.99999651	0.00000023
5.99587E-05	0.99999626	0.00000026
6.20217E-05	0.99999599	0.00000029
6.41557E-05	0.99999571	0.00000033
6.63631E-05	0.99999541	0.00000037
6.86465E-05	0.99999508	0.00000042
7.10085E-05	0.99999473	0.00000048
7.34517E-05	0.99999437	0.00000054
7.59789E-05	0.99999397	0.00000061
7.85932E-05	0.99999355	0.00000069
8.12973E-05	0.99999308	0.00000078
8.40946E-05	0.99999259	0.00000088
8.6988E-05	0.99999206	0.00000099
8.99811E-05	0.99999149	0.00000112
9.30771E-05	0.99999091	0.00000126
9.62796E-05	0.9999903	0.00000142
9.95923E-05	0.99998965	0.00000159
0.000103019	0.99998902	0.00000179
0.000106564	0.99998834	0.00000201
0.00011023	0.99998771	0.00000226
0.000114023	0.99998729	0.00000253
0.000117946	0.99998657	0.00000257
0.000122004	0.99998567	0.00000208
0.000126202	0.99998465	0.00000237
0.000130544	0.99998397	0.0000027
0.000135036	0.99998357	0.00000113
0.000139682	0.99998139	0.00000127
0.000144488	0.99997969	0.00000144
0.00014946	0.99997803	0.00000163
0.000154602	0.99997629	0.00000183
0.000159922	0.9999745	0.00000207
0.000165424	0.99997263	0.00000234
0.000171116	0.99997058	0.00000264
0.000177004	0.99996839	0.00000297
0.000183094	0.99996616	0.00000335
0.000189394	0.99996368	0.00000378
0.00019591	0.99996104	0.00000426
0.000202651	0.99995822	0.0000048
0.000209624	0.99995531	0.00000541
0.000216836	0.9999521	0.0000061
0.000224297	0.99994868	0.00000687
0.000232014	0.99994503	0.00000774
0.000239997	0.99994113	0.00000872
0.000248255	0.99993699	0.00000981
0.000256797	0.99993256	0.00001105
0.000265633	0.99992784	0.00001244
0.000274772	0.99992282	0.000014
0.000284226	0.99991747	0.00001575
0.000294006	0.99991178	0.00001771
0.000304122	0.99990575	0.00001992
0.000314586	0.99989931	0.0000224
0.00032541	0.99989253	0.00002518
0.000336606	0.99988532	0.0000283
0.000348188	0.99987775	0.00003179
0.000360168	0.99986974	0.00003571
0.000372561	0.99986137	0.00004009
0.000385379	0.9998526	0.000045
0.000398639	0.99984344	0.0000505
0.000412355	0.99983395	0.00005665
0.000426543	0.99982418	0.00006352
0.00044122	0.99981419	0.0000712
0.000456401	0.99980418	0.00007978
0.000472104	0.99979441	0.00008936
0.000488348	0.9997864	0.00010003
0.000505151	0.9997753	0.00010775
0.000522532	0.99976618	0.00012106
0.000540511	0.99976432	0.00013603
0.000559108	0.99975088	0.00012375
0.000578346	0.9997308	0.00013922
0.000598245	0.99971591	0.00015664
0.000618829	0.99970397	0.00017272
0.000640121	0.99969158	0.00019434
0.000662146	0.99968402	0.00021868
0.000684928	0.99968232	0.00024607
0.000705825	0.99969791	0.000275665
0.000728169	0.99973223	0.000282622
0.000730543	0.99973574	0.000281514
0.000733224	0.99973947	0.000279927
0.000735797	0.99974332	0.00027846
0.000738402	0.99974669	0.00027593
0.000741139	0.99975033	0.00027324
0.000743723	0.9997536	0.00027209
0.000746358	0.99975467	0.00026825
0.000749178	0.99975712	0.00026501
0.000751884	0.99975924	0.00026163
0.000754694	0.9997625	0.00025972
0.000757364	0.99976534	0.00025637
0.000760194	0.9997685	0.00025081
0.000763009	0.99976915	0.00024742
0.000765761	0.99976989	0.00024364
0.000768694	0.99977356	0.00023894
0.00077158	0.99977253	0.00023452
0.000774353	0.99977691	0.00023522
0.00077727	0.9997841	0.0002306
0.000780325	0.99978865	0.00022061
0.000783268	0.99979292	0.00020907
0.000786189	0.99979402	0.00019459
0.000789152	0.99979082	0.0001826
0.000792197	0.99978551	0.00017079
0.000795288	0.99977884	0.00015774
0.000803008	0.99975724	0.00013808
0.000835412	0.99966454	0.00010897
0.000870694	0.99959538	0.00011387
0.000908933	0.99952246	0.00012455
0.000950785	0.99945458	0.0001456
0.000996604	0.99938334	0.00016774
0.001047134	0.99930548	0.00019504
0.001103025	0.9992176	0.00022858
0.001165284	0.99911806	0.00027082
0.001234901	0.99900458	0.00032405
0.001274259	0.99894002	0.00035704
0.001314823	0.99887254	0.00039167
0.001357944	0.99879775	0.00043123
0.001405781	0.99871757	0.00048036
0.001455238	0.99863299	0.00053017
0.001508287	0.99854027	0.00058694
0.001548813	0.99846734	0.00063415
0.001609185	0.99836196	0.00070752
0.001674287	0.9982456	0.00078804
0.001744981	0.99810696	0.00088162
0.001821278	0.99797401	0.00100417
0.001905828	0.99782395	0.00113046
0.001998928	0.99765435	0.00128367
0.002082872	0.99750259	0.00142384
0.00212632	0.99742433	0.00150508
0.002171189	0.99734727	0.00159268
0.00221842	0.99726313	0.00168286
0.002267506	0.99718386	0.00177903
0.002318691	0.99711877	0.00184805
0.002372419	0.99703166	0.00196423
0.002414652	0.9969631	0.00203897
0.002418275	0.99695608	0.00204597
0.002421939	0.99695074	0.00205451
0.002425742	0.99694088	0.00206216
0.002429978	0.99693363	0.00207143
0.002433304	0.99693182	0.00207621
0.002436927	0.99692459	0.00208528
0.002440676	0.99691744	0.00208844
0.002444298	0.99691082	0.00209704
0.00244808	0.99690599	0.00210463
0.002450664	0.99690015	0.00210992
0.002455028	0.99689232	0.00211788
0.002458799	0.99688691	0.00212472
0.00246204	0.99688252	0.00212971
0.002465651	0.99687639	0.00213699
0.002469412	0.99686962	0.00214177
0.002473532	0.99686188	0.00214825
0.002477154	0.99685413	0.00215407
0.002480957	0.9968447	0.00216253
0.0024846	0.99683565	0.00216911
0.002500376	0.99680835	0.00220345
0.002561332	0.99670522	0.002327
0.002625336	0.99659325	0.00245662
0.002692518	0.99648593	0.00261194
0.002763256	0.99636034	0.0027587
0.002837828	0.99624362	0.0029356
0.002916525	0.99612691	0.00312574
0.00295792	0.99608949	0.00323297
0.0029624	0.99608694	0.00324359
0.002967815	0.99608424	0.00325508
0.002973364	0.99608208	0.00326551
0.002978127	0.99607809	0.00327267
0.002983849	0.99607284	0.00328115
0.002989349	0.99606669	0.00329009
0.002994504	0.99606055	0.00329916
0.003000176	0.99605383	0.00330802
0.003005836	0.99604615	0.00331814
0.00301104	0.99603921	0.00332801
0.003016367	0.99603336	0.00333665
0.003021731	0.99602544	0.0033459
0.003026823	0.99601885	0.00335533
0.003032248	0.99600991	0.00336392
0.003038313	0.9959998	0.00337358
0.003043909	0.99599084	0.00338525
0.003049358	0.99598103	0.00339628
0.00305429	0.99597224	0.0034098
0.003060366	0.99596913	0.00342505
0.003103061	0.99595767	0.00353178
0.003197533	0.99574608	0.00371799
0.003297644	0.99561648	0.00394498
0.003402497	0.99555178	0.00422059
0.003408872	0.99555667	0.00423024
0.003416149	0.99555884	0.00424008
0.003423762	0.9955597	0.00424877
0.003430978	0.99556036	0.00425503
0.003437736	0.99556266	0.00426155
0.003445029	0.99556651	0.00426523
0.003452705	0.99556854	0.00426252
0.003459631	0.99556661	0.00425591
0.003466879	0.99555901	0.00424754
0.003474341	0.9955434	0.00423821
0.003481406	0.99552483	0.00423235
0.003488394	0.99550401	0.00423237
0.003496438	0.99547908	0.00423677
0.003503733	0.99545587	0.00424167
0.003510845	0.99543665	0.00425009
0.003518828	0.99541538	0.00424826
0.00352672	0.99537352	0.00427241
0.003534123	0.99536119	0.00428737
0.003541724	0.99534132	0.00429989
0.003549112	0.9953195	0.00431509
0.003665112	0.99505907	0.00457355
0.003800306	0.99479273	0.00491015
0.003946512	0.99456096	0.00528249
0.004104179	0.99428248	0.00566606
0.004274845	0.99397076	0.00622456
0.004460289	0.99383042	0.00661169
0.00464934	0.99354617	0.00714803
0.004866273	0.99329045	0.00769981
0.005104462	0.9930176	0.00836553
0.005367359	0.99286447	0.00903902
0.005658748	0.99270976	0.00966961
0.005799496	0.99266804	0.00981861
0.005819775	0.99264172	0.00984149
0.00584007	0.99261524	0.00986656
0.005860572	0.99258819	0.00989758
0.005881522	0.99256733	0.00993183
0.00590541	0.99254692	0.0099712
0.005923041	0.99253781	0.01000046
0.005944196	0.99253124	0.0100291
0.005965385	0.99252687	0.01005205
0.00598685	0.99252707	0.01006668
0.006008331	0.99252665	0.01006665
0.006030019	0.99251638	0.01005134
0.006052017	0.99248295	0.01002415
0.006074031	0.99242974	0.01000317
0.006096235	0.99235978	0.00999578
0.006118559	0.99228631	0.01000412
0.006141089	0.9922137	0.01002146
0.006163739	0.99213966	0.01004541
0.006186612	0.99206637	0.01007798
0.006209346	0.99199864	0.01011732
0.006232875	0.99193215	0.0101636
0.006256177	0.9918749	0.01021228
0.006279772	0.99182137	0.01026173
0.006303522	0.99178137	0.01031007
0.006327392	0.99174784	0.0103373
0.006351519	0.99169961	0.01034557
0.006375801	0.99162438	0.01035339
0.006400168	0.99153353	0.010379
0.006424931	0.99144121	0.01042092
0.006449624	0.99135238	0.0104748
0.006474661	0.99126759	0.01053612
0.006499973	0.99118864	0.01060099
0.006525267	0.99111399	0.01066753
0.006577298	0.99096815	0.01080366
0.006787652	0.99045091	0.01140617
0.007011361	0.99001638	0.01207672
0.0072509	0.9896282	0.01272013
0.007506844	0.98926007	0.013364
0.007781524	0.98884503	0.01393527
0.008077352	0.9882513	0.01450206
0.008396885	0.98753074	0.01522085
0.008742279	0.98673279	0.01603724
0.009117342	0.98589186	0.0170531
0.009526157	0.9851091	0.01808056
0.009973359	0.98415136	0.01906327
0.010464165	0.9830072	0.02016724
0.011006292	0.98166547	0.02127073
0.011607082	0.9798149	0.02239259
0.012277932	0.97732497	0.02395526
0.01303079	0.97462574	0.02624936
0.013881779	0.97160796	0.02867137
0.014852155	0.96759796	0.0312819
0.015968479	0.96210287	0.03471953
0.017265651	0.95494905	0.03917248
0.018792882	0.94490085	0.04608867
0.019253796	0.94120262	0.04864157
0.019480481	0.93940603	0.05009858
0.01971282	0.93758119	0.05166136
0.019950814	0.93574258	0.05336954
0.020194536	0.93389589	0.05518555
0.020444325	0.93205869	0.05709864
0.020700085	0.93022347	0.05907146
0.020962664	0.92833565	0.06109877
0.021232111	0.92633592	0.06313496
0.021508426	0.92418233	0.06533862
0.021791779	0.92184756	0.06767409
0.022083091	0.91943275	0.07025203
0.022381927	0.91697182	0.07304029
0.022689061	0.91451185	0.07609749
0.023005029	0.91207539	0.07922914
0.023329417	0.90948441	0.08218323
0.02366339	0.90618446	0.08506966
0.024006948	0.90192131	0.08848112
0.02436077	0.89703984	0.09278112
0.024724953	0.89157044	0.09825747
0.026102163	0.88060277	0.12762845
0.027861934	0.86323636	0.17370083
0.029875076	0.88949796	0.27253945
0.031289919	0.96879086	0.28341991
0.03189252	0.9852374	0.2735811
0.032520417	0.99149123	0.26496457
0.03317361	0.99103175	0.26810584
0.033853636	1.0046512	0.28294737
0.034560187	1.031785	0.29018149
0.035298383	1.0652826	0.281345
0.03606802	1.0863346	0.25383489
0.036871352	1.0896944	0.2250702
0.037714215	1.0760256	0.21107097
0.038594664	1.0734767	0.21051282
0.039517409	1.0737728	0.20740672
0.040484397	1.0747966	0.20627558
0.041500134	1.0794225	0.20894827
0.042570356	1.0968156	0.21666824
0.043694651	1.1260919	0.19832643
0.044882546	1.1404793	0.16612263
0.046133322	1.139406	0.13045907
0.047458347	1.1333435	0.07571611
0.048861617	1.0774593	0.055904933
0.050350197	1.0433624	0.056341031
0.051932077	1.0166401	0.059019066
0.053616472	0.99261377	0.062541263
0.055413725	0.96898721	0.06695701
0.060479917	0.90748705	0.08466
0.070848362	0.79142267	0.14497467
0.085504862	0.58227966	0.32379877
0.107820147	0.57509611	0.82324669
0.145862562	0.93842469	1.2065074
0.268751853	1.1504462	1.527804
0.417406873	1.3419813	2.6584261
0.478584427	1.6340495	2.9857783
0.578434974	2.0257974	3.3863811
0.785649146	2.6844216	3.8065262
1.197918211	3.1039486	4.5828958
1.55919509	3.1703282	5.6025651
1.878080283	3.3144878	6.8185526
2.295727048	3.9570892	8.4585658
3.304349183	6.3670199	11.025509
5.661378422	10.241766	14.485201
10.08001524	15.227848	19.085727
17.78826219	21.525413	25.187154
31.5481393	29.88906	33.346816
55.84873308	40.913344	44.229998
99.18734995	55.654174	58.728856
175.3666017	75.097235	77.963748
310.7373119	100.8863	103.55918
551.040833	135.21411	137.68247
976.2534444	180.44954	183.7767
1726.799268	243.1544	244.09964
3061.337961	325.86144	322.69048
5414.156656	435.46695	425.60298
9611.17732	582.44304	559.39016
17007.43312	777.52571	732.21427
30166.46896	1040.4943	951.96855
53441.4601	1393.1161	1225.4082
94644.41789	1875.3869	1554.2506
167546.1992	2546.5104	1922.4965
296612.8886	3535.4927	2255.5724
525356.7264	5175.806	2206.6828
