Material: main / MgH2 / Palm
Optical constants. K. J. Palm, J. B. Murray, T. C. Narayan, J. N. Munday. Dynamic optical properties of metal hydrides, ACS Photonics 5, 4677-4686 (2018)(Numerical data kindly provided by Kevin Palm)
Comments: Magnesium Hydride, Under 7 bar H2 gas, Room temperature, 200 nm thin film, electron beam evaporated, vacuum annealed 2 hr 350 Â°C.
wavelength (um)	n	k
0.250019531	2.343867	0
0.253212234	2.319186	0
0.256404968	2.293265	0
0.259597809	2.268124	0
0.262790649	2.245255	0.00599
0.265983551	2.225088	0.013739
0.269176483	2.207588	0.021259
0.272369446	2.192445	0.027916
0.275562469	2.179042	0.033189
0.278755524	2.166557	0.037061
0.281948608	2.154499	0.039837
0.285141693	2.142634	0.041827
0.288334839	2.130863	0.043208
0.291527985	2.119029	0.044089
0.29472113	2.106941	0.04466
0.297914307	2.094489	0.045182
0.301107483	2.081648	0.045949
0.30430069	2.0685	0.047272
0.307493866	2.05528	0.049442
0.310687073	2.042381	0.052639
0.31388028	2.030329	0.05682
0.317073456	2.019624	0.061596
0.320266632	2.010471	0.066256
0.323459808	2.002518	0.070053
0.326652954	1.995043	0.072775
0.32984613	1.987611	0.074667
0.333039246	1.980193	0.075884
0.33623233	1.972597	0.076255
0.339425385	1.964291	0.075853
0.342618439	1.954914	0.075294
0.345811462	1.944771	0.075149
0.349004425	1.934304	0.075481
0.352197357	1.923635	0.076039
0.355390259	1.91256	0.076831
0.358583099	1.901057	0.078118
0.361775909	1.889376	0.080122
0.364968658	1.877833	0.082766
0.368161346	1.866552	0.085866
0.371353973	1.855558	0.089266
0.37454657	1.844801	0.092867
0.377739075	1.834252	0.096651
0.380931549	1.823941	0.100623
0.384123932	1.813971	0.104715
0.387316223	1.804377	0.108775
0.390508484	1.795132	0.112651
0.393700623	1.78617	0.116203
0.396892731	1.777396	0.119306
0.400084717	1.768693	0.121847
0.403276642	1.759917	0.123726
0.406468445	1.750906	0.124852
0.409660156	1.741467	0.125146
0.412851807	1.731372	0.124541
0.416043304	1.720352	0.122978
0.419234772	1.708063	0.12041
0.422426086	1.693972	0.11684
0.425617279	1.677455	0.11268
0.428808411	1.658214	0.10852
0.43199942	1.636113	0.104912
0.435190277	1.611097	0.102384
0.438381012	1.583172	0.101457
0.441571625	1.552396	0.102655
0.444762146	1.518872	0.10652
0.447952545	1.482768	0.113624
0.451142761	1.444324	0.124581
0.454332855	1.403886	0.140056
0.457522858	1.361948	0.160763
0.460712708	1.319211	0.187452
0.463902405	1.276662	0.220861
0.467091888	1.235658	0.261616
0.470281311	1.198013	0.310059
0.47347052	1.166094	0.365835
0.476659607	1.142044	0.427227
0.479848541	1.126956	0.491917
0.483037292	1.121002	0.557553
0.486225891	1.123602	0.622081
0.489414307	1.133707	0.68396
0.492602539	1.150079	0.742182
0.495790619	1.171502	0.79619
0.498978516	1.196885	0.845749
0.50216626	1.225299	0.890833
0.505353821	1.255972	0.931544
0.508541168	1.28827	0.968052
0.511728333	1.321673	1.00056
0.514915283	1.355749	1.029284
0.518102051	1.390138	1.054439
0.521288696	1.424532	1.076236
0.524475037	1.45866	1.094877
0.527661255	1.492278	1.110556
0.530847168	1.525158	1.123462
0.534032959	1.557069	1.133786
0.537218506	1.587743	1.141763
0.540403809	1.616989	1.147771
0.543588928	1.644784	1.15215
0.546773804	1.671148	1.155168
0.549958496	1.69612	1.157046
0.553142944	1.719748	1.157968
0.556327148	1.742089	1.158092
0.559511108	1.763197	1.157556
0.562694824	1.783132	1.156477
0.565878296	1.80195	1.154959
0.569061646	1.819708	1.153094
0.572244629	1.836463	1.150963
0.575427368	1.85227	1.148636
0.578609863	1.867184	1.146179
0.581792114	1.881257	1.143647
0.584974121	1.894541	1.141092
0.588155884	1.907089	1.138558
0.591337341	1.918951	1.136087
0.594518555	1.930176	1.133713
0.597699524	1.940814	1.13147
0.600880188	1.950915	1.129384
0.604060608	1.960528	1.127481
0.607240723	1.969701	1.12578
0.610420532	1.978486	1.1243
0.613600098	1.986932	1.123053
0.616779358	1.995094	1.12205
0.619958374	2.003032	1.121295
0.623137024	2.010813	1.120771
0.62631543	2.018482	1.12044
0.62949353	2.026064	1.120267
0.632671265	2.033579	1.120225
0.635848755	2.041037	1.120288
0.639026001	2.04845	1.120437
0.64220282	2.055825	1.120653
0.645379395	2.063167	1.120917
0.648555664	2.070479	1.121217
0.651731567	2.077765	1.121538
0.654907166	2.085025	1.121868
0.658082458	2.09226	1.122198
0.661257446	2.099471	1.122516
0.664432007	2.106656	1.122815
0.667606323	2.113815	1.123086
0.670780273	2.120946	1.123324
0.673953857	2.128046	1.123521
0.677127136	2.135114	1.123672
0.680300049	2.142148	1.123773
0.683472656	2.149143	1.123819
0.686644897	2.156099	1.123807
0.689816772	2.163012	1.123733
0.69298822	2.169878	1.123594
0.696159424	2.176694	1.123388
0.6993302	2.183458	1.123113
0.70250061	2.190165	1.122767
0.705670715	2.196812	1.12235
0.708840393	2.203396	1.121859
0.712009705	2.209913	1.121295
0.715178589	2.216358	1.120656
0.718347168	2.222728	1.119943
0.721515381	2.22902	1.119157
0.724683167	2.235227	1.118297
0.727850525	2.241346	1.117363
0.731017578	2.247372	1.116358
0.734184204	2.253298	1.115284
0.737350403	2.259118	1.114141
0.740516235	2.264822	1.112939
0.743681641	2.270408	1.111686
0.746846619	2.275874	1.11039
0.75001123	2.281221	1.10906
0.753175415	2.286449	1.107701
0.756339233	2.29156	1.106321
0.759502563	2.296555	1.104923
0.762665527	2.301436	1.103514
0.765828003	2.306206	1.102099
0.768990112	2.310866	1.10068
0.772151733	2.31542	1.099264
0.775312988	2.319869	1.097852
0.778473755	2.324217	1.096449
0.781634155	2.328467	1.095058
0.784794067	2.33262	1.093681
0.787953552	2.33668	1.092322
0.79111261	2.340649	1.090983
0.794271118	2.344531	1.089666
0.797429321	2.348328	1.088373
0.800586975	2.352043	1.087107
0.803744202	2.355679	1.085869
0.80690094	2.359239	1.084661
0.810057251	2.362725	1.083484
0.813213013	2.36614	1.08234
0.816368408	2.369488	1.08123
0.819523254	2.37277	1.080155
0.822677734	2.375989	1.079116
0.825831665	2.379149	1.078115
0.828985046	2.382252	1.077152
0.832138062	2.3853	1.076228
0.835290527	2.388296	1.075344
0.838442505	2.391243	1.0745
0.841594055	2.394144	1.073696
0.844744995	2.397	1.072934
0.847895508	2.399815	1.072213
0.851045593	2.40259	1.071533
0.854195007	2.405329	1.070896
0.857344055	2.408034	1.070301
0.860492554	2.410708	1.069748
0.863640503	2.413352	1.069237
0.866787964	2.41597	1.068769
0.869934937	2.418564	1.068342
0.87308136	2.421135	1.067957
0.876227356	2.423688	1.067615
0.879372681	2.426223	1.067313
0.882517456	2.428745	1.067052
0.885661804	2.431254	1.066832
0.888805664	2.433754	1.066653
0.891948914	2.436248	1.066512
0.895091614	2.438737	1.066411
0.898233765	2.441226	1.066348
0.901375366	2.443716	1.066323
0.904516479	2.446212	1.066333
0.907656921	2.448716	1.066379
0.910796997	2.451235	1.066456
0.91393634	2.45377	1.066561
0.917075195	2.456322	1.066689
0.920213501	2.458893	1.066836
0.923351257	2.461483	1.067
0.926488403	2.464092	1.067177
0.929625	2.466721	1.067364
0.932760925	2.469368	1.067558
0.935896362	2.472034	1.067758
0.93903125	2.474719	1.06796
0.942165527	2.477422	1.068162
0.945299194	2.480142	1.068362
0.948432312	2.482878	1.068559
0.951564819	2.485631	1.06875
0.954696777	2.488398	1.068934
0.957828125	2.49118	1.069109
0.960958801	2.493975	1.069273
0.964088989	2.496783	1.069426
0.967218445	2.499603	1.069565
0.970347351	2.502433	1.06969
0.973475708	2.505273	1.0698
0.976603333	2.508122	1.069892
0.979730347	2.510978	1.069967
0.982856812	2.513842	1.070024
0.985982727	2.516711	1.070061
0.98910791	2.519585	1.070077
0.992232544	2.522463	1.070073
0.995356445	2.525344	1.070047
0.998479797	2.528226	1.069998
1.014837524	2.543324	1.069358
1.021614868	2.549558	1.068892
1.028394165	2.555767	1.068303
1.035175293	2.561941	1.06759
1.041958252	2.568071	1.06675
1.048743286	2.574147	1.065781
1.055530029	2.580161	1.064684
1.062318848	2.586104	1.063458
1.069109497	2.591966	1.062103
1.075901978	2.59774	1.06062
1.082696411	2.603416	1.05901
1.089492676	2.608987	1.057274
1.096290894	2.614444	1.055415
1.103091064	2.619779	1.053433
1.109893066	2.624984	1.051332
1.116697021	2.630049	1.049114
1.123502686	2.634968	1.046781
1.130310425	2.63973	1.044337
1.137119995	2.644327	1.041785
1.143931396	2.648751	1.039129
1.150744873	2.652991	1.036373
1.157560059	2.657036	1.03352
1.164377197	2.660876	1.030576
1.171196289	2.664497	1.027546
1.178017212	2.667884	1.024436
1.184840088	2.671015	1.021259
1.191664795	2.673871	1.01804
1.198491455	2.676446	1.014807
1.205319946	2.678741	1.011586
1.212150269	2.680759	1.008398
1.218982666	2.682505	1.005263
1.225816772	2.683985	1.002198
1.232652954	2.685206	0.999219
1.239490845	2.686177	0.996342
1.246330811	2.686907	0.993579
1.253172485	2.687403	0.990942
1.260016113	2.687677	0.988444
1.266861572	2.687737	0.986093
1.273709106	2.687593	0.983899
1.28055835	2.687256	0.98187
1.287409668	2.686734	0.980014
1.294262695	2.686039	0.978339
1.301117676	2.685179	0.976849
1.307974609	2.684166	0.975551
1.314833374	2.683009	0.97445
1.321694092	2.681717	0.97355
1.328556519	2.680302	0.972856
1.335421021	2.678772	0.97237
1.342287354	2.677138	0.972097
1.349155518	2.675409	0.972038
1.356025635	2.673594	0.972196
1.362897705	2.671703	0.972572
1.369771606	2.669746	0.973169
1.376647339	2.667731	0.973987
1.383525024	2.665667	0.975028
1.390404541	2.663564	0.976291
1.397285889	2.661431	0.977777
1.404169312	2.659276	0.979486
1.411054443	2.657107	0.981418
1.41794165	2.654934	0.983571
1.424830688	2.652765	0.985945
1.431721436	2.650608	0.98854
1.438614258	2.648471	0.991352
1.445508911	2.646363	0.994382
1.452405518	2.64429	0.997626
1.459303955	2.642262	1.001083
1.466204224	2.640285	1.00475
1.473106323	2.638367	1.008626
1.480010498	2.636515	1.012706
1.486916382	2.634737	1.016989
1.493824341	2.63304	1.021472
1.500734131	2.63143	1.02615
1.507645752	2.629915	1.03102
1.514559204	2.628501	1.036079
1.521474609	2.627194	1.041324
1.528391846	2.626002	1.046749
1.535311035	2.624929	1.052352
1.542232056	2.623984	1.058127
1.549155029	2.62317	1.06407
1.556079834	2.622495	1.070177
1.563006592	2.621964	1.076443
1.569935181	2.621583	1.082863
1.576865601	2.621356	1.089432
1.583797974	2.62129	1.096146
1.590732178	2.621389	1.102998
1.597668335	2.621659	1.109983
1.604606323	2.622104	1.117097
1.611546143	2.62273	1.124333
1.618488037	2.623542	1.131685
1.625431641	2.624543	1.139149
1.632377197	2.62574	1.146719
1.639324585	2.627136	1.154387
1.646274048	2.628736	1.162148
1.65322522	2.630545	1.169997
1.660178101	2.632568	1.177925
1.667133179	2.634811	1.185928
1.674090088	2.637278	1.193997
1.681048584	2.639977	1.202125
