Material: main / Ta / Ordal
Optical constants. M. A. Ordal, R. J. Bell, R. W. Alexander, L. A. Newquist, M. R. Querry. Optical properties of Al, Fe, Ti, Ta, W, and Mo at submillimeter wavelengths, Appl. Opt. 27, 1203-1209 (1988)
wavelength (um)	n	k
0.667	1.4478379	2.3306224
0.714	1.2685432	2.7919609
0.769	1.1466787	3.2384897
0.833	1.0730870	3.7362305
0.909	1.0150307	4.2736932
1.00	0.9821499	4.8873028
1.05	0.9603200	5.2167868
1.11	0.9253053	5.5894492
1.18	0.9012078	6.0121558
1.25	0.8740663	6.4776281
1.33	0.8414308	7.0171487
1.43	0.8354757	7.6548582
1.54	0.8564461	8.3686838
1.67	0.9019896	9.1771344
1.82	0.9608260	10.114648
2.00	1.0326738	11.243595
2.11	1.1067824	11.896174
2.22	1.1923530	12.595572
2.35	1.2678805	13.363144
2.50	1.3499202	14.239580
2.67	1.4802727	15.240124
2.86	1.6348171	16.359682
3.08	1.8209204	17.640057
3.33	2.0587589	19.120563
3.64	2.3469537	20.845754
4.00	2.6799222	22.915456
4.44	3.1932058	25.461819
5.00	3.9020861	28.577040
5.71	4.9008382	32.510917
6.67	6.4122619	37.643719
8.00	8.7691085	44.613332
10.0	12.931507	54.673721
11.1	15.615760	59.926459
12.5	19.058763	66.350003
14.3	24.238520	73.949845
16.7	31.493393	82.794230
20.0	41.721911	93.122866
22.2	48.392026	98.921392
25.0	56.428490	105.16669
28.6	66.138800	111.86857
33.3	77.867703	119.08288
40.0	92.016211	127.08528
44.4	100.17673	131.63028
50.0	109.23359	136.82885
57.1	119.43744	143.08774
66.7	131.25365	151.08524
80.0	145.5884	161.98150
100	164.07966	177.86128
125	184.49663	196.87085
