Material: main / Ta / Windt
Optical constants. D. L. Windt, W. C. Cash, M. Scott, P. Arendt, B. Newnam, R. F. Fisher, A. B. Swartzlander. Optical constants for thin films of Ti, Zr, Nb, Mo, Ru, Rh, Pd, Ag, Hf, Ta, W, Re, Ir, Os, Pt, and Au from 24 Å to 1216 Å, Appl. Opt. 27, 246-278 (1988)
wavelength (um)	n	k
0.00236	0.99639	0.00211
0.00316	0.99530	0.00326
0.00447	0.99054	0.00951
0.00676	0.9815	0.0149
0.01140	0.9613	0.0288
0.01355	0.9436	0.0331
0.01714	0.886	0.0694
0.02430	0.861	0.220
0.02563	0.868	0.250
0.03038	0.892	0.256
0.03270	0.964	0.318
0.03568	0.922	0.259
0.03793	0.903	0.259
0.04059	0.854	0.209
0.04478	0.830	0.240
0.04607	0.812	0.279
0.04895	0.811	0.305
0.05391	0.768	0.310
0.05843	0.730	0.406
0.06163	0.790	0.610
0.06714	0.762	0.607
0.07185	0.790	0.716
0.07359	0.830	0.750
0.07437	0.780	0.721
0.08345	0.851	0.853
0.08780	0.917	0.953
0.09198	0.977	1.04
0.09321	0.971	1.05
0.09888	0.996	1.08
0.10258	1.05	1.13
0.10482	1.09	1.15
0.10667	1.06	1.13
0.10857	1.25	1.20
0.11350	1.29	1.17
0.12007	1.39	1.20
0.12157	1.23	1.17
