Material: main / Mg / Hagemann
Optical constants. 1) H.-J. Hagemann, W. Gudat, and C. Kunz. Optical constants from the far infrared to the x-ray region: Mg, Al, Cu, Ag, Au, Bi, C, and Al2O3, J. Opt. Soc. Am. 65, 742-744 (1975)2) H.-J. Hagemann, W. Gudat, and C. Kunz. DESY report SR-74/7 (1974)
wavelength (um)	n	k
2.480E-05	1.000E+00	5.38E-11
3.100E-05	1.000E+00	1.35E-10
4.133E-05	1.000E+00	4.80E-10
6.199E-05	1.001E+00	2.04E-09
1.240E-04	1.000E+00	3.33E-08
1.550E-04	1.000E+00	8.27E-08
2.066E-04	9.999E-01	2.75E-07
3.100E-04	9.998E-01	1.19E-06
6.199E-04	9.999E-01	1.75E-05
8.266E-04	1.000E+00	4.76E-05
9.537E-04	1.000E+00	1.50E-05
9.840E-04	1.000E+00	8.15E-06
9.919E-04	9.999E-01	7.09E-06
1.033E-03	1.000E+00	8.94E-06
1.240E-03	9.999E-01	1.86E-05
1.550E-03	9.996E-01	4.41E-05
2.066E-03	9.990E-01	1.39E-04
2.480E-03	9.987E-01	2.66E-04
2.755E-03	9.984E-01	3.75E-04
3.100E-03	9.977E-01	5.42E-04
3.542E-03	9.974E-01	8.11E-04
4.133E-03	9.963E-01	1.25E-03
4.959E-03	9.948E-01	2.15E-03
6.199E-03	9.923E-01	4.07E-03
6.888E-03	9.911E-01	5.30E-03
7.749E-03	9.891E-01	7.11E-03
8.266E-03	9.881E-01	8.16E-03
8.551E-03	9.871E-01	8.85E-03
8.856E-03	9.860E-01	1.00E-02
9.184E-03	9.849E-01	1.16E-02
9.537E-03	9.846E-01	1.35E-02
9.919E-03	9.847E-01	1.52E-02
1.033E-02	9.846E-01	1.66E-02
1.078E-02	9.841E-01	1.77E-02
1.127E-02	9.829E-01	1.93E-02
1.181E-02	9.815E-01	2.25E-02
1.240E-02	9.815E-01	2.68E-02
1.305E-02	9.838E-01	3.10E-02
1.378E-02	9.860E-01	3.30E-02
1.393E-02	9.867E-01	3.37E-02
1.409E-02	9.870E-01	3.34E-02
1.425E-02	9.870E-01	3.34E-02
1.442E-02	9.870E-01	3.36E-02
1.476E-02	9.880E-01	3.45E-02
1.512E-02	9.880E-01	3.52E-02
1.550E-02	9.870E-01	3.60E-02
1.590E-02	9.860E-01	3.74E-02
1.631E-02	9.840E-01	4.14E-02
1.675E-02	9.860E-01	4.75E-02
1.722E-02	9.920E-01	5.26E-02
1.771E-02	1.000E+00	5.33E-02
1.823E-02	1.005E+00	5.03E-02
1.879E-02	1.008E+00	4.58E-02
1.937E-02	1.008E+00	4.32E-02
2.000E-02	1.008E+00	4.14E-02
2.066E-02	1.008E+00	4.09E-02
2.101E-02	1.008E+00	4.10E-02
2.138E-02	1.009E+00	4.08E-02
2.175E-02	1.010E+00	4.09E-02
2.214E-02	1.011E+00	4.18E-02
2.234E-02	1.012E+00	4.12E-02
2.254E-02	1.013E+00	4.06E-02
2.275E-02	1.013E+00	3.98E-02
2.296E-02	1.014E+00	4.01E-02
2.317E-02	1.015E+00	4.07E-02
2.339E-02	1.017E+00	3.93E-02
2.362E-02	1.018E+00	3.88E-02
2.384E-02	1.019E+00	3.76E-02
2.407E-02	1.020E+00	3.72E-02
2.431E-02	1.021E+00	3.58E-02
2.455E-02	1.023E+00	3.79E-02
2.480E-02	1.030E+00	4.17E-02
2.490E-02	1.040E+00	4.18E-02
2.500E-02	1.050E+00	3.38E-02
2.510E-02	1.053E+00	1.06E-02
2.520E-02	1.040E+00	4.92E-03
2.530E-02	1.033E+00	4.92E-03
2.556E-02	1.023E+00	4.96E-03
2.583E-02	1.018E+00	5.02E-03
2.695E-02	1.004E+00	5.97E-03
2.818E-02	9.970E-01	6.86E-03
2.952E-02	9.890E-01	7.36E-03
3.100E-02	9.820E-01	8.84E-03
3.263E-02	9.750E-01	1.02E-02
3.444E-02	9.670E-01	1.14E-02
3.647E-02	9.590E-01	1.41E-02
3.875E-02	9.500E-01	1.54E-02
4.133E-02	9.390E-01	1.69E-02
4.428E-02	9.240E-01	1.96E-02
4.769E-02	9.060E-01	2.52E-02
5.166E-02	8.850E-01	3.30E-02
5.636E-02	8.610E-01	4.54E-02
6.199E-02	8.330E-01	5.92E-02
6.888E-02	7.980E-01	7.31E-02
7.749E-02	7.410E-01	7.92E-02
8.266E-02	6.920E-01	9.16E-02
8.856E-02	6.440E-01	1.11E-01
9.537E-02	5.770E-01	1.27E-01
1.033E-01	4.770E-01	1.45E-01
1.078E-01	4.040E-01	1.58E-01
1.127E-01	2.930E-01	1.76E-01
1.181E-01	1.100E-01	2.96E-01
1.240E-01	7.230E-02	4.99E-01
1.305E-01	6.910E-02	6.47E-01
1.378E-01	7.170E-02	7.87E-01
1.459E-01	8.580E-02	9.26E-01
1.550E-01	1.150E-01	1.06E+00
1.653E-01	1.550E-01	1.19E+00
1.698E-01	1.710E-01	1.23E+00
1.746E-01	1.840E-01	1.27E+00
1.797E-01	1.940E-01	1.31E+00
1.851E-01	1.990E-01	1.35E+00
1.907E-01	1.970E-01	1.39E+00
1.968E-01	1.870E-01	1.44E+00
2.033E-01	1.660E-01	1.49E+00
2.101E-01	1.400E-01	1.56E+00
2.175E-01	1.210E-01	1.64E+00
2.214E-01	1.120E-01	1.74E+00
2.480E-01	1.110E-01	2.00E+00
3.100E-01	1.320E-01	2.63E+00
4.133E-01	1.840E-01	3.66E+00
6.199E-01	3.820E-01	5.74E+00
8.266E-01	7.910E-01	7.96E+00
1.240E+00	2.997E+00	1.28E+01
1.378E+00	4.776E+00	1.45E+01
1.550E+00	8.269E+00	1.55E+01
1.771E+00	1.120E+01	1.02E+01
1.907E+00	8.809E+00	8.98E+00
2.066E+00	6.056E+00	9.33E+00
2.254E+00	4.194E+00	1.22E+01
2.480E+00	4.509E+00	1.47E+01
2.755E+00	5.056E+00	1.68E+01
3.100E+00	6.069E+00	1.95E+01
3.542E+00	7.519E+00	2.22E+01
4.133E+00	9.516E+00	2.51E+01
4.959E+00	1.230E+01	2.88E+01
6.199E+00	1.520E+01	3.26E+01
8.266E+00	1.890E+01	3.76E+01
1.240E+01	2.380E+01	4.88E+01
2.480E+01	3.030E+01	6.02E+01
