Material: main / Mg / Vidal-Dasilva
Optical constants. M. Vidal-Dasilva, A. L. Aquila, E. M. Gullikson, F. Salmassi and J. I. Larruquert. Optical constants of magnetron-sputtered magnesium films in the 25-1300 eV energy range, J. Appl. Phys. 108, 063517 (2010) (Numerical data kindly provided by Juan Larruquert)
Comments: Density: 1.738 g/cm3. Film deposited at room temperature.
Specs: {"n_absolute": true, "wavelength_vacuum": true}
wavelength (um)	n	k
0.000953725	0.9999096	9.60854E-06
0.000961118	0.99988093	6.43808E-06
0.000968626	0.99986795	6.36943E-06
0.000976253	0.99985877	6.94005E-06
0.000984001	0.99985132	6.40111E-06
0.000991873	0.99984461	6.59544E-06
0.000999872	0.99983819	7.13638E-06
0.001008002	0.99983265	7.33711E-06
0.001016264	0.9998272	7.73875E-06
0.001024663	0.99982208	7.50749E-06
0.001033202	0.99981667	7.82052E-06
0.001041884	0.99981162	8.16078E-06
0.001050713	0.99980681	8.62568E-06
0.001059694	0.99980179	8.73963E-06
0.001068829	0.9997966	9.17502E-06
0.001078123	0.99979144	9.09431E-06
0.001087581	0.99978606	9.72974E-06
0.001097205	0.99978101	1.02749E-05
0.001107002	0.99977579	1.03216E-05
0.001116975	0.99977069	1.04136E-05
0.001127129	0.99976516	1.08219E-05
0.00113747	0.99975993	1.12775E-05
0.001148002	0.99975411	1.16477E-05
0.001158731	0.99974871	1.19605E-05
0.001169662	0.99974257	1.33296E-05
0.001180802	0.99973667	1.29055E-05
0.001192156	0.9997306	1.40587E-05
0.00120373	0.99972457	1.40488E-05
0.001215531	0.99971843	1.48222E-05
0.001227566	0.99971168	1.50621E-05
0.001239842	0.99970461	1.58797E-05
0.001252366	0.9996982	1.62702E-05
0.001265145	0.99969072	1.68158E-05
0.001278187	0.99968443	1.75831E-05
0.001291502	0.99967593	1.82139E-05
0.001305097	0.99966873	1.90667E-05
0.001318981	0.99966067	1.96649E-05
0.001333163	0.99965255	2.02518E-05
0.001347654	0.99964416	2.15716E-05
0.001362464	0.99963598	2.21223E-05
0.001377602	0.99962762	2.33731E-05
0.001386848	0.99962141	2.23879E-05
0.001394648	0.99961634	2.2908E-05
0.001402536	0.99961126	2.35649E-05
0.001410514	0.99960608	2.42337E-05
0.001418583	0.99960162	2.47514E-05
0.001426746	0.99959596	2.52463E-05
0.001435002	0.9995911	2.61866E-05
0.001443355	0.99958594	2.63245E-05
0.001451805	0.99958058	2.72172E-05
0.001460356	0.99957494	2.81295E-05
0.001469007	0.99957008	2.77538E-05
0.001477761	0.99956418	2.88549E-05
0.001486621	0.99955869	2.97776E-05
0.001495587	0.99955278	3.00608E-05
0.001504662	0.99954689	3.10213E-05
0.001513848	0.99954076	3.14978E-05
0.001523147	0.99953458	3.23239E-05
0.001532561	0.99952828	3.30703E-05
0.001542092	0.99952196	3.37505E-05
0.001551742	0.99951553	3.44687E-05
0.001561514	0.99950908	3.56675E-05
0.001571409	0.99950213	3.64167E-05
0.001581431	0.99949519	3.745E-05
0.001591581	0.9994884	3.80775E-05
0.001601863	0.99948106	3.90875E-05
0.001612278	0.99947388	4.02521E-05
0.00162283	0.99946641	4.12411E-05
0.00163352	0.99945851	4.25435E-05
0.001644353	0.9994513	4.38059E-05
0.00165533	0.99944357	4.48143E-05
0.001666454	0.99943556	4.57283E-05
0.001677729	0.99942741	4.712E-05
0.001689158	0.99941903	4.81248E-05
0.001700743	0.99941068	4.96099E-05
0.001712489	0.99940193	5.09829E-05
0.001724398	0.99939303	5.21517E-05
0.001736473	0.99938424	5.35284E-05
0.001748719	0.99937469	5.48057E-05
0.001761139	0.99936547	5.65348E-05
0.001773737	0.99935597	5.80636E-05
0.001786516	0.99934602	5.94281E-05
0.00179948	0.99933602	6.10975E-05
0.001812634	0.99932587	6.29171E-05
0.001825982	0.99931571	6.47893E-05
0.001839528	0.99930476	6.66627E-05
0.001853276	0.99929384	6.87146E-05
0.001867232	0.99928274	7.05162E-05
0.001881399	0.99927153	7.25182E-05
0.001895783	0.99926006	7.45078E-05
0.001910388	0.99924796	7.59727E-05
0.00192522	0.99923545	7.85155E-05
0.001940285	0.99922258	8.04251E-05
0.001955587	0.99920978	8.28207E-05
0.001971132	0.99919677	8.562E-05
0.001986926	0.99918317	8.82369E-05
0.002002976	0.99916952	9.06675E-05
0.002019286	0.9991551	9.33743E-05
0.002035865	0.99914073	9.63625E-05
0.002052718	0.99912577	9.93339E-05
0.002069853	0.9991106	0.000102624
0.002087276	0.99909522	0.000105788
0.002104995	0.99907906	0.000108942
0.002123017	0.99906233	0.000112581
0.00214135	0.9990459	0.000115832
0.002160003	0.99902824	0.00011985
0.002178984	0.99901066	0.000123738
0.002198301	0.99899254	0.000127675
0.002217964	0.99897422	0.000131858
0.002237982	0.99895493	0.000136373
0.002258364	0.99893487	0.000140541
0.002279121	0.99891382	0.000146144
0.002300263	0.99889557	0.000152386
0.002321801	0.99887545	0.000155268
0.002343746	0.99885199	0.000158645
0.00236611	0.99882845	0.000164238
0.002388905	0.9988045	0.000170086
0.002412144	0.99878017	0.0001763
0.002435839	0.99875504	0.000182717
0.002460004	0.99872933	0.000189373
0.002484653	0.99870294	0.000196165
0.002509801	0.9986752	0.000203283
0.002535464	0.99864745	0.000211279
0.002561657	0.99861793	0.000219382
0.002588396	0.9985883	0.000228079
0.0026157	0.99855788	0.000236627
0.002643586	0.99852647	0.00024656
0.002672073	0.99849339	0.000255328
0.002701181	0.99845935	0.000265421
0.002730929	0.99842411	0.000275842
0.00276134	0.99838705	0.000287895
0.002792437	0.99834868	0.000299275
0.002824241	0.99830462	0.000319368
0.002856779	0.99827245	0.000332176
0.002890074	0.99823309	0.000345635
0.002924155	0.99819205	0.00036012
0.00295905	0.99814875	0.00037521
0.002994787	0.99810462	0.000391818
0.003031398	0.99805877	0.000408808
0.003068916	0.99801142	0.000426391
0.003107373	0.99796191	0.000444501
0.003146807	0.99791057	0.000464255
0.003187254	0.99785711	0.000485173
0.003228755	0.99780153	0.000507139
0.003271351	0.99774383	0.000530176
0.003315085	0.99768413	0.000555381
0.003360005	0.99762205	0.000581559
0.003406159	0.99755819	0.000609181
0.003453599	0.99749159	0.00063845
0.003502378	0.99742189	0.000669911
0.003552556	0.99735002	0.000703824
0.003604191	0.9972746	0.000739243
0.003657351	0.99719719	0.00077758
0.003712101	0.99711663	0.000817836
0.003768516	0.99703442	0.000860614
0.003826672	0.99694791	0.000905833
0.003886652	0.99685836	0.000953499
0.003948541	0.99676737	0.001003689
0.004012433	0.99667577	0.00105423
0.004078427	0.99658098	0.001096388
0.004146628	0.99647357	0.001138589
0.004217149	0.99635358	0.00115886
0.00429011	0.99610313	0.001234947
0.00436564	0.99590445	0.001434297
0.004404412	0.99592283	0.001474256
0.004443878	0.99587803	0.001519015
0.004484057	0.99582214	0.00156554
0.00452497	0.99576248	0.001614191
0.004566637	0.99569896	0.001664929
0.004609078	0.99563546	0.001717408
0.004652315	0.99556874	0.001769785
0.004696371	0.99550083	0.001822884
0.004741269	0.99542846	0.00187796
0.004787034	0.99535347	0.001934946
0.004833692	0.99527813	0.001995312
0.004881267	0.9951995	0.002057635
0.004929789	0.99511983	0.002120481
0.004979285	0.99503867	0.002185767
0.005029784	0.99495282	0.002254664
0.005081319	0.9948647	0.002323673
0.005133921	0.99477381	0.002400921
0.005187623	0.99468008	0.002475794
0.00524246	0.99458109	0.002558428
0.00529847	0.99448214	0.0026458
0.005355688	0.99437884	0.00273657
0.005414157	0.9942761	0.002836423
0.005473916	0.99417254	0.002938026
0.005535008	0.9940678	0.003046068
0.00559748	0.99396116	0.00315901
0.005661378	0.99385529	0.00327425
0.005726752	0.9937502	0.003397127
0.005793654	0.99364604	0.003519481
0.005862137	0.99353639	0.003647245
0.005932258	0.99343333	0.003778724
0.006004077	0.99332101	0.00391172
0.006077656	0.99320655	0.004036229
0.006153061	0.99309273	0.004172584
0.006230361	0.99296743	0.004315282
0.006309628	0.99282379	0.004439047
0.006390937	0.99265671	0.004618846
0.00647437	0.99251575	0.004762873
0.00656001	0.99231109	0.004917138
0.006637269	0.99216421	0.005201955
0.006709101	0.992069	0.00537566
0.006782505	0.99195753	0.005550646
0.006857532	0.991839	0.005734225
0.006934239	0.99172024	0.005926169
0.00701268	0.99159862	0.006120729
0.007092917	0.99145808	0.006323159
0.007175011	0.99130232	0.006561965
0.007259027	0.99116628	0.006848237
0.007345035	0.99107141	0.007158379
0.007433105	0.9910244	0.007466141
0.007523312	0.99100954	0.007747142
0.007615736	0.99100714	0.007993497
0.007710459	0.99099667	0.008206903
0.007807568	0.99096695	0.008398859
0.007907155	0.99091507	0.008576857
0.008009314	0.99082586	0.008755241
0.008114148	0.99070004	0.00894476
0.008221763	0.99056295	0.009170952
0.008332271	0.99043169	0.009396359
0.008445789	0.99025442	0.009594477
0.008562444	0.99003696	0.009880434
0.008682366	0.98979686	0.01023218
0.008805695	0.98961198	0.0105354
0.008932578	0.98921845	0.01098459
0.009063172	0.98909335	0.01165654
0.00919764	0.98910979	0.01212418
0.009336159	0.98889304	0.01248111
0.009478913	0.9888059	0.01334851
0.009626102	0.98893484	0.0140031
0.009777933	0.98919607	0.01453166
0.00993463	0.98947504	0.01495154
0.010096432	0.98968441	0.01518439
0.010263592	0.98981397	0.01534621
0.010436379	0.9897746	0.01536163
0.010615085	0.98939555	0.01549284
0.010800016	0.98891187	0.01575356
0.010991506	0.98820069	0.0162191
0.011159693	0.98773824	0.01744219
0.011261052	0.987703	0.01777483
0.01136427	0.98754162	0.01816157
0.011469398	0.98734483	0.01864549
0.011576488	0.98716135	0.01922047
0.011685597	0.98705253	0.01985515
0.011796783	0.98701109	0.02053565
0.011910104	0.98703311	0.0211875
0.012025624	0.98707831	0.02186003
0.012143407	0.98714566	0.02258264
0.01226352	0.98728182	0.02333162
0.012386033	0.98758017	0.02418664
0.012523655	0.98792683	0.0246013
0.012651448	0.98811864	0.02537554
0.012781875	0.98845825	0.0261785
0.01291502	0.98898805	0.02695215
0.013050967	0.98970496	0.02756118
0.013189807	0.99030119	0.02781262
0.013331633	0.99075403	0.02818351
0.013476542	0.99119693	0.02861784
0.013624636	0.99165286	0.02906871
0.013776021	0.99218216	0.0296392
0.013930808	0.9932908	0.03022985
0.014089112	0.99399399	0.02967053
0.014251056	0.99422219	0.02973496
0.014416766	0.99458033	0.02987804
0.014586375	0.99496144	0.03001232
0.014760022	0.99535253	0.03007684
0.014937854	0.99568454	0.03009025
0.015120023	0.99588837	0.03006278
0.01530669	0.99597574	0.03005285
0.015498023	0.99597812	0.03007981
0.015694201	0.99579303	0.03008106
0.015895409	0.9952529	0.03021697
0.016101843	0.99436374	0.03078588
0.016313709	0.99325599	0.03213532
0.016531225	0.99256898	0.03467716
0.01675462	0.99332439	0.03796187
0.016984135	0.99538824	0.04079569
0.017243976	0.99925481	0.04291321
0.017487191	1.002798	0.04343121
0.017737366	1.0061335	0.04291384
0.017994802	1.0090531	0.04169353
0.018259821	1.011453	0.03990668
0.018532763	1.0131127	0.03782074
0.018813989	1.0140987	0.03575078
0.019103881	1.01468	0.03394638
0.019402846	1.0150628	0.03230278
0.019711318	1.015221	0.0307481
0.020029756	1.0151957	0.02943245
0.020358651	1.0152137	0.02814383
0.020698529	1.0147833	0.02697384
0.021049947	1.0144899	0.02631526
0.021413504	1.0144715	0.02563244
0.02178984	1.0142694	0.02508378
0.02217964	1.0146484	0.02497802
0.022583641	1.0162142	0.02375334
0.023002632	1.0154473	0.02144584
0.023437465	1.0151287	0.0216497
0.023889053	1.0160058	0.02178314
0.024358387	1.0172894	0.01985128
0.024796837	1.0282434	0.01818829
0.025110722	1.0263426	0.001924772
0.025432654	1.0171869	0.001707374
0.025762948	1.0129163	0.001745217
0.026101934	1.0098801	0.001815245
0.02644996	1.0074096	0.0018811
0.026807392	1.0052516	0.001940852
0.027174616	1.0032858	0.002000244
0.027552042	1.0014449	0.002064993
0.027940099	0.99968895	0.002139596
0.028339243	0.99799254	0.002226734
0.028749957	0.99634101	0.002327127
0.02917275	0.99471796	0.00243969
0.029608164	0.99311563	0.002561902
0.030056773	0.99152504	0.0026903
0.030519185	0.98993717	0.00282105
0.030996047	0.98834248	0.002950525
0.031488048	0.98673303	0.003075829
0.031995919	0.98509379	0.003195215
0.032520443	0.983416	0.003308329
0.03306245	0.98168893	0.003416262
0.03362283	0.97990237	0.003521401
0.034202534	0.9780492	0.003627109
0.034802579	0.97611662	0.003737278
0.035424054	0.97409934	0.003855834
0.036068127	0.9719906	0.00398625
0.036736056	0.96978396	0.004131144
0.037429189	0.96747263	0.004292022
0.038148981	0.96505127	0.004469234
0.038897	0.96250562	0.004662193
0.03967494	0.95982606	0.004869896
0.040484633	0.95699768	0.005091765
0.041328062	0.95400493	0.005328766
0.042207383	0.95082225	0.00558467
0.043124935	0.94742967	0.005867241
0.044083267	0.94380518	0.006188956
0.045085159	0.93993259	0.006566642
0.046133651	0.93579524	0.007019006
0.047232071	0.93139435	0.007560138
0.048384073	0.92673895	0.008185491
0.049593675	0.92182723	0.008844205
