Material: main / Ag / Yang
Optical constants. H. U. Yang, J. D'Archangel, M. L. Sundheimer, E. Tucker, G. D. Boreman, M. B. Raschke. Optical dielectric function of silver, Phys. Rev. B 91, 235137 (2015) (see Supplemental Material for numerical data; data taken from 'Ag_C_corrected.csv')
Comments: Template-stripped silver
Specs: {"n_absolute": true, "wavelength_vacuum": true}
wavelength (um)	n	k
2.700E-01	1.364E+00	1.318E+00
2.900E-01	1.531E+00	1.168E+00
3.100E-01	1.373E+00	5.192E-01
3.300E-01	2.207E-01	6.779E-01
3.500E-01	8.443E-02	1.341E+00
3.699E-01	6.727E-02	1.699E+00
3.899E-01	6.035E-02	1.971E+00
4.099E-01	5.647E-02	2.203E+00
4.299E-01	5.411E-02	2.413E+00
4.499E-01	5.271E-02	2.609E+00
4.699E-01	5.198E-02	2.795E+00
4.899E-01	5.175E-02	2.974E+00
5.099E-01	5.193E-02	3.148E+00
5.299E-01	5.245E-02	3.318E+00
5.499E-01	5.326E-02	3.484E+00
5.699E-01	5.431E-02	3.648E+00
5.899E-01	5.560E-02	3.809E+00
6.099E-01	5.709E-02	3.968E+00
6.299E-01	5.876E-02	4.126E+00
6.499E-01	6.061E-02	4.283E+00
6.699E-01	6.262E-02	4.438E+00
6.899E-01	6.478E-02	4.593E+00
7.099E-01	6.708E-02	4.746E+00
7.299E-01	6.953E-02	4.899E+00
7.499E-01	7.210E-02	5.051E+00
7.699E-01	7.480E-02	5.202E+00
7.899E-01	7.762E-02	5.353E+00
8.099E-01	8.057E-02	5.503E+00
8.299E-01	8.362E-02	5.653E+00
8.499E-01	8.679E-02	5.802E+00
8.699E-01	9.007E-02	5.951E+00
8.899E-01	9.345E-02	6.100E+00
9.099E-01	9.694E-02	6.248E+00
9.299E-01	1.005E-01	6.396E+00
9.499E-01	1.042E-01	6.544E+00
9.698E-01	1.080E-01	6.691E+00
9.899E-01	1.119E-01	6.838E+00
1.010E+00	1.159E-01	6.985E+00
1.030E+00	1.200E-01	7.132E+00
1.050E+00	1.242E-01	7.279E+00
1.070E+00	1.285E-01	7.425E+00
1.090E+00	1.328E-01	7.571E+00
1.110E+00	1.373E-01	7.718E+00
1.130E+00	1.419E-01	7.863E+00
1.150E+00	1.465E-01	8.009E+00
1.170E+00	1.513E-01	8.155E+00
1.190E+00	1.561E-01	8.300E+00
1.210E+00	1.610E-01	8.446E+00
1.230E+00	1.660E-01	8.591E+00
1.250E+00	1.711E-01	8.736E+00
1.268E+00	1.759E-01	8.869E+00
1.278E+00	1.785E-01	8.942E+00
1.288E+00	1.812E-01	9.015E+00
1.299E+00	1.840E-01	9.090E+00
1.309E+00	1.868E-01	9.166E+00
1.320E+00	1.897E-01	9.243E+00
1.328E+00	1.919E-01	9.302E+00
1.339E+00	1.949E-01	9.381E+00
1.347E+00	1.973E-01	9.442E+00
1.359E+00	2.004E-01	9.524E+00
1.379E+00	2.062E-01	9.670E+00
1.400E+00	2.122E-01	9.820E+00
1.418E+00	2.176E-01	9.953E+00
1.430E+00	2.210E-01	1.004E+01
1.440E+00	2.240E-01	1.011E+01
1.450E+00	2.270E-01	1.018E+01
1.460E+00	2.301E-01	1.026E+01
1.470E+00	2.331E-01	1.033E+01
1.480E+00	2.362E-01	1.040E+01
1.490E+00	2.393E-01	1.047E+01
1.500E+00	2.424E-01	1.054E+01
1.510E+00	2.455E-01	1.062E+01
1.520E+00	2.487E-01	1.069E+01
1.530E+00	2.518E-01	1.076E+01
1.540E+00	2.550E-01	1.083E+01
1.550E+00	2.582E-01	1.090E+01
1.560E+00	2.615E-01	1.098E+01
1.570E+00	2.647E-01	1.105E+01
1.580E+00	2.680E-01	1.112E+01
1.590E+00	2.713E-01	1.119E+01
1.600E+00	2.747E-01	1.126E+01
1.610E+00	2.780E-01	1.134E+01
1.620E+00	2.814E-01	1.141E+01
1.630E+00	2.848E-01	1.148E+01
1.640E+00	2.882E-01	1.155E+01
1.650E+00	2.916E-01	1.162E+01
1.660E+00	2.951E-01	1.169E+01
1.670E+00	2.985E-01	1.177E+01
1.680E+00	3.020E-01	1.184E+01
1.690E+00	3.056E-01	1.191E+01
1.700E+00	3.091E-01	1.198E+01
1.710E+00	3.127E-01	1.205E+01
1.720E+00	3.162E-01	1.213E+01
1.730E+00	3.198E-01	1.220E+01
1.740E+00	3.235E-01	1.227E+01
1.750E+00	3.271E-01	1.234E+01
1.760E+00	3.308E-01	1.241E+01
1.770E+00	3.345E-01	1.248E+01
1.780E+00	3.382E-01	1.256E+01
1.790E+00	3.419E-01	1.263E+01
1.800E+00	3.457E-01	1.270E+01
1.810E+00	3.494E-01	1.277E+01
1.820E+00	3.532E-01	1.284E+01
1.830E+00	3.570E-01	1.291E+01
1.840E+00	3.609E-01	1.299E+01
1.850E+00	3.647E-01	1.306E+01
1.860E+00	3.686E-01	1.313E+01
1.870E+00	3.725E-01	1.320E+01
1.880E+00	3.764E-01	1.327E+01
1.890E+00	3.804E-01	1.334E+01
1.900E+00	3.843E-01	1.342E+01
1.910E+00	3.883E-01	1.349E+01
1.920E+00	3.923E-01	1.356E+01
1.930E+00	3.964E-01	1.363E+01
1.940E+00	4.004E-01	1.370E+01
1.950E+00	4.045E-01	1.377E+01
1.960E+00	4.086E-01	1.384E+01
1.970E+00	4.127E-01	1.392E+01
1.980E+00	4.168E-01	1.399E+01
1.990E+00	4.210E-01	1.406E+01
2.000E+00	4.251E-01	1.413E+01
2.019E+00	4.331E-01	1.427E+01
2.038E+00	4.412E-01	1.440E+01
2.057E+00	4.495E-01	1.454E+01
2.077E+00	4.581E-01	1.468E+01
2.097E+00	4.669E-01	1.483E+01
2.118E+00	4.760E-01	1.497E+01
2.139E+00	4.853E-01	1.512E+01
2.153E+00	4.917E-01	1.523E+01
2.175E+00	5.015E-01	1.538E+01
2.197E+00	5.116E-01	1.554E+01
2.219E+00	5.221E-01	1.570E+01
2.235E+00	5.292E-01	1.581E+01
2.258E+00	5.402E-01	1.597E+01
2.274E+00	5.477E-01	1.609E+01
2.298E+00	5.593E-01	1.626E+01
2.314E+00	5.672E-01	1.638E+01
2.339E+00	5.794E-01	1.656E+01
2.356E+00	5.877E-01	1.668E+01
2.374E+00	5.963E-01	1.680E+01
2.391E+00	6.050E-01	1.692E+01
2.418E+00	6.185E-01	1.712E+01
2.436E+00	6.277E-01	1.724E+01
2.455E+00	6.372E-01	1.738E+01
2.473E+00	6.468E-01	1.751E+01
2.492E+00	6.567E-01	1.765E+01
2.512E+00	6.668E-01	1.778E+01
2.531E+00	6.772E-01	1.792E+01
2.551E+00	6.878E-01	1.806E+01
2.572E+00	6.986E-01	1.821E+01
2.592E+00	7.097E-01	1.835E+01
2.613E+00	7.211E-01	1.850E+01
2.634E+00	7.327E-01	1.865E+01
2.656E+00	7.447E-01	1.881E+01
2.678E+00	7.569E-01	1.896E+01
2.700E+00	7.695E-01	1.912E+01
2.723E+00	7.823E-01	1.928E+01
2.746E+00	7.955E-01	1.945E+01
2.769E+00	8.090E-01	1.961E+01
2.793E+00	8.229E-01	1.978E+01
2.817E+00	8.371E-01	1.996E+01
2.842E+00	8.517E-01	2.013E+01
2.867E+00	8.667E-01	2.031E+01
2.893E+00	8.821E-01	2.049E+01
2.919E+00	8.979E-01	2.068E+01
2.946E+00	9.142E-01	2.086E+01
2.973E+00	9.309E-01	2.106E+01
3.000E+00	9.480E-01	2.125E+01
3.028E+00	9.657E-01	2.145E+01
3.057E+00	9.838E-01	2.165E+01
3.086E+00	1.003E+00	2.186E+01
3.116E+00	1.022E+00	2.207E+01
3.146E+00	1.041E+00	2.228E+01
3.177E+00	1.062E+00	2.250E+01
3.208E+00	1.083E+00	2.272E+01
3.240E+00	1.104E+00	2.295E+01
3.273E+00	1.126E+00	2.318E+01
3.306E+00	1.149E+00	2.342E+01
3.340E+00	1.173E+00	2.366E+01
3.375E+00	1.197E+00	2.390E+01
3.411E+00	1.222E+00	2.416E+01
3.447E+00	1.248E+00	2.441E+01
3.484E+00	1.275E+00	2.467E+01
3.522E+00	1.303E+00	2.494E+01
3.561E+00	1.331E+00	2.521E+01
3.600E+00	1.361E+00	2.549E+01
3.641E+00	1.391E+00	2.578E+01
3.682E+00	1.422E+00	2.607E+01
3.724E+00	1.455E+00	2.637E+01
3.768E+00	1.489E+00	2.667E+01
3.812E+00	1.524E+00	2.698E+01
3.857E+00	1.560E+00	2.730E+01
3.904E+00	1.597E+00	2.763E+01
3.951E+00	1.636E+00	2.797E+01
4.000E+00	1.676E+00	2.831E+01
4.050E+00	1.718E+00	2.866E+01
4.101E+00	1.761E+00	2.902E+01
4.154E+00	1.806E+00	2.939E+01
4.208E+00	1.853E+00	2.977E+01
4.263E+00	1.901E+00	3.016E+01
4.320E+00	1.951E+00	3.056E+01
4.379E+00	2.004E+00	3.096E+01
4.439E+00	2.059E+00	3.138E+01
4.500E+00	2.115E+00	3.182E+01
4.564E+00	2.175E+00	3.226E+01
4.629E+00	2.236E+00	3.272E+01
4.696E+00	2.301E+00	3.318E+01
4.765E+00	2.368E+00	3.367E+01
4.836E+00	2.438E+00	3.416E+01
4.909E+00	2.512E+00	3.467E+01
4.985E+00	2.588E+00	3.520E+01
5.063E+00	2.669E+00	3.574E+01
5.143E+00	2.753E+00	3.630E+01
5.226E+00	2.841E+00	3.688E+01
5.312E+00	2.933E+00	3.747E+01
5.400E+00	3.030E+00	3.809E+01
5.492E+00	3.132E+00	3.872E+01
5.586E+00	3.239E+00	3.938E+01
5.684E+00	3.351E+00	4.005E+01
5.786E+00	3.470E+00	4.076E+01
5.891E+00	3.595E+00	4.148E+01
6.000E+00	3.726E+00	4.223E+01
6.114E+00	3.865E+00	4.301E+01
6.231E+00	4.012E+00	4.382E+01
6.353E+00	4.168E+00	4.466E+01
6.480E+00	4.332E+00	4.553E+01
6.612E+00	4.507E+00	4.644E+01
6.750E+00	4.692E+00	4.738E+01
6.894E+00	4.888E+00	4.836E+01
7.044E+00	5.097E+00	4.938E+01
7.200E+00	5.320E+00	5.044E+01
7.364E+00	5.557E+00	5.155E+01
7.535E+00	5.811E+00	5.271E+01
7.715E+00	6.082E+00	5.392E+01
7.903E+00	6.373E+00	5.518E+01
8.100E+00	6.684E+00	5.651E+01
8.308E+00	7.019E+00	5.790E+01
8.527E+00	7.379E+00	5.936E+01
8.757E+00	7.767E+00	6.089E+01
9.001E+00	8.186E+00	6.250E+01
9.257E+00	8.639E+00	6.419E+01
9.530E+00	9.131E+00	6.598E+01
9.819E+00	9.665E+00	6.787E+01
1.013E+01	1.025E+01	6.986E+01
1.045E+01	1.088E+01	7.197E+01
1.080E+01	1.158E+01	7.421E+01
1.117E+01	1.234E+01	7.658E+01
1.157E+01	1.318E+01	7.911E+01
1.200E+01	1.410E+01	8.180E+01
1.246E+01	1.512E+01	8.467E+01
1.296E+01	1.625E+01	8.774E+01
1.350E+01	1.752E+01	9.103E+01
1.409E+01	1.893E+01	9.457E+01
1.473E+01	2.051E+01	9.837E+01
1.543E+01	2.229E+01	1.025E+02
1.620E+01	2.431E+01	1.069E+02
1.705E+01	2.659E+01	1.117E+02
1.800E+01	2.920E+01	1.169E+02
1.906E+01	3.220E+01	1.226E+02
2.025E+01	3.565E+01	1.288E+02
2.160E+01	3.965E+01	1.356E+02
2.314E+01	4.431E+01	1.431E+02
2.492E+01	4.979E+01	1.514E+02
