Material: main / Ir / Hass-40C
Optical constants. G. Hass, G. F. Jacobus, W. R. Hunter. Optical properties of evaporated iridium in the vacuum ultraviolet from 500 Å to 2000 Å, J. Opt. Soc. Am. 57, 758-762 (1967)
Comments: Thin film deposited at 40 °C
Specs: {"n_absolute": true, "wavelength_vacuum": false, "substrate": "glass", "deposition_temperature": "40 °C"}
wavelength (um)	n	k
0.0500	0.68	0.77
0.0550	0.73	0.84
0.0600	0.80	0.88
0.0650	0.89	0.87
0.0700	1.00	0.83
0.0750	1.06	0.83
0.0800	1.08	0.84
0.0850	1.09	0.87
0.0900	1.08	0.89
0.0950	1.10	0.93
0.1000	1.13	0.97
0.1100	1.18	1.04
0.1200	1.22	1.01
0.1300	1.23	0.99
0.1400	1.22	0.99
0.1500	1.16	1.02
0.5461	2.32	4.20
