Material: main / Ir / Windt
Optical constants. D. L. Windt, W. C. Cash, M. Scott, P. Arendt, B. Newnam, R. F. Fisher, A. B. Swartzlander. Optical constants for thin films of Ti, Zr, Nb, Mo, Ru, Rh, Pd, Ag, Hf, Ta, W, Re, Ir, Os, Pt, and Au from 24 Å to 1216 Å, Appl. Opt. 27, 246-278 (1988)
wavelength (um)	n	k
0.00236	0.99477	0.00521
0.00316	0.99506	0.00317
0.00447	0.99116	0.0109
0.00676	0.9845	0.0139
0.01140	0.9359	0.0186
0.01355	0.893	0.0532
0.01714	0.858	0.175
0.02430	0.868	0.226
0.02563	0.900	0.17
0.03038	0.779	0.159
0.03270	0.723	0.208
0.03568	0.648	0.323
0.03793	0.624	0.413
0.04059	0.651	0.534
0.04478	0.657	0.613
0.04607	0.658	0.662
0.04895	0.714	0.753
0.05391	0.759	0.911
0.05843	0.838	0.999
0.06163	0.910	0.986
0.06714	1.14	1.00
0.07185	1.07	0.805
0.07359	1.08	0.865
0.07437	1.09	0.856
0.08345	0.976	0.885
0.08780	1.10	0.934
0.09198	1.06	0.953
0.09321	1.00	0.951
0.09888	1.23	1.04
0.10258	1.08	1.05
0.10482	1.14	1.10
0.10667	1.14	1.09
0.10857	1.20	1.16
0.11350	1.27	1.16
0.12007	1.31	1.12
0.12157	1.42	1.13
