Material: main / Li / Mathewson-298K
Optical constants. A. G. Mathewson and H. P. Myers. Absolute values of the optical constants of some pure metals, Phys. Scr. 4, 291-292 (1971)
Comments: 298 K (24.85 Â°C)
Specs: {"n_absolute": true, "wavelength_vacuum": true, "temperature": "298 K"}
wavelength (um)	n	k
0.32627	0.34301	1.38479
0.33062	0.33820	1.41929
0.33509	0.33429	1.43588
0.33968	0.33051	1.45232
0.34440	0.32328	1.48476
0.34925	0.31984	1.50077
0.35424	0.31649	1.51663
0.35937	0.31009	1.54795
0.36466	0.30404	1.57875
0.37010	0.29531	1.60848
0.37571	0.28993	1.63831
0.38149	0.28191	1.66718
0.38745	0.27423	1.69564
0.39360	0.26970	1.72416
0.39995	0.26258	1.75184
0.40651	0.25378	1.79288
0.41328	0.24549	1.83310
0.42029	0.23668	1.85904
0.42753	0.22763	1.91097
0.43503	0.22207	1.93631
0.44280	0.21396	1.98640
0.45085	0.20635	2.03533
0.45920	0.19683	2.08297
0.46786	0.19016	2.12983
0.47686	0.18385	2.17573
0.48621	0.17389	2.24282
0.49594	0.16838	2.28656
0.50606	0.16165	2.35077
0.51660	0.15539	2.41333
0.52759	0.14953	2.47434
0.53906	0.14601	2.53403
0.55104	0.14359	2.61163
0.56356	0.14428	2.66849
0.57667	0.14585	2.74249
0.59040	0.14653	2.83222
0.60480	0.14817	2.90206
0.61992	0.14898	2.98700
0.63582	0.15069	3.08589
0.65255	0.15243	3.18170
0.67018	0.15574	3.27479
0.68880	0.15828	3.38010
0.70848	0.16159	3.49659
0.72932	0.16422	3.62312
0.75142	0.16954	3.74550
0.77490	0.17282	3.87684
0.79990	0.17926	4.01648
0.82656	0.18374	4.16338
0.85506	0.18995	4.31695
0.88560	0.19721	4.48764
0.91840	0.20636	4.65216
0.95372	0.21524	4.83180
0.99187	0.22532	5.01505
1.03320	0.22874	5.26805
1.07812	0.24492	5.57315
1.12713	0.26222	5.85395
1.18080	0.27055	6.15412
1.23984	0.28997	6.51798
1.30510	0.31059	6.90626
1.37760	0.33455	7.30835
1.45864	0.35887	7.84403
1.54980	0.39382	8.41755
1.65312	0.44518	8.95143
1.77120	0.48911	9.60933
