Material: main / Li / Mathewson-140K
Optical constants. A. G. Mathewson and H. P. Myers. Absolute values of the optical constants of some pure metals, Phys. Scr. 4, 291-292 (1971)
Comments: 140 K (-133.15 Â°C)
Specs: {"n_absolute": true, "wavelength_vacuum": true, "temperature": "140 K"}
wavelength (um)	n	k
0.33968	0.33620	1.38312
0.34440	0.32482	1.41616
0.34925	0.31078	1.44796
0.35424	0.30068	1.48000
0.35937	0.28790	1.51092
0.36466	0.27572	1.54143
0.37010	0.26407	1.57154
0.37571	0.25293	1.60124
0.38149	0.24225	1.63055
0.38745	0.23496	1.65988
0.39360	0.22507	1.68839
0.39995	0.21555	1.71653
0.40651	0.20312	1.77236
0.41328	0.19451	1.79940
0.42029	0.18619	1.82611
0.42753	0.17826	1.87930
0.43503	0.16832	1.93089
0.44280	0.16104	1.95600
0.45085	0.15454	2.00596
0.45920	0.14601	2.05459
0.46786	0.13877	2.12585
0.47686	0.13351	2.17206
0.48621	0.12853	2.21732
0.49594	0.12479	2.28376
0.50606	0.12136	2.34835
0.51660	0.11820	2.41122
0.52759	0.11729	2.47260
0.53906	0.11363	2.55204
0.55104	0.11684	2.61030
0.56356	0.11914	2.68593
0.57667	0.11959	2.75940
0.59040	0.12186	2.83105
0.60480	0.12337	2.91808
0.61992	0.12489	3.00260
0.63582	0.12643	3.08480
0.65255	0.12890	3.18066
0.67018	0.13135	3.27372
0.68880	0.13317	3.37901
0.70848	0.13645	3.48118
0.72932	0.14050	3.59440
0.75142	0.14257	3.71757
0.77490	0.14627	3.86282
0.79990	0.14989	4.00281
0.82656	0.15377	4.16217
0.85506	0.15830	4.32725
0.88560	0.16192	4.50846
0.91840	0.16832	4.69343
0.95372	0.17412	4.88163
0.99187	0.18038	5.07272
1.03320	0.18659	5.33243
1.07812	0.19201	5.62467
1.12713	0.19963	5.91099
1.18080	0.20859	6.20834
1.23984	0.21693	6.54577
1.30510	0.22721	6.93193
1.37760	0.23021	7.40628
1.45864	0.24903	7.89063
1.54980	0.26543	8.38275
1.65312	0.28080	9.00993
1.77120	0.29957	9.66384
