Material: main / CdTe / Adachi
Optical constants. S. Adachi, T. Kimura, N. Suzuki. Optical properties of CdTe: Experiment and modeling, J. Appl. Phys. 74, 3435-3441 (1993)[Calculation script (Python)]
wavelength (um)	n	k
2.2140e-01	1.5592e+00	2.2528e+00
2.2212e-01	1.5792e+00	2.2690e+00
2.2284e-01	1.6001e+00	2.2852e+00
2.2356e-01	1.6223e+00	2.3012e+00
2.2429e-01	1.6456e+00	2.3170e+00
2.2502e-01	1.6701e+00	2.3325e+00
2.2576e-01	1.6959e+00	2.3477e+00
2.2651e-01	1.7231e+00	2.3624e+00
2.2726e-01	1.7516e+00	2.3764e+00
2.2801e-01	1.7815e+00	2.3897e+00
2.2877e-01	1.8128e+00	2.4021e+00
2.2953e-01	1.8456e+00	2.4135e+00
2.3030e-01	1.8797e+00	2.4237e+00
2.3108e-01	1.9152e+00	2.4325e+00
2.3185e-01	1.9520e+00	2.4397e+00
2.3264e-01	1.9900e+00	2.4451e+00
2.3343e-01	2.0291e+00	2.4486e+00
2.3422e-01	2.0691e+00	2.4499e+00
2.3503e-01	2.1099e+00	2.4490e+00
2.3583e-01	2.1513e+00	2.4455e+00
2.3664e-01	2.1930e+00	2.4394e+00
2.3746e-01	2.2346e+00	2.4307e+00
2.3828e-01	2.2760e+00	2.4191e+00
2.3911e-01	2.3168e+00	2.4048e+00
2.3995e-01	2.3567e+00	2.3877e+00
2.4079e-01	2.3953e+00	2.3680e+00
2.4163e-01	2.4323e+00	2.3457e+00
2.4249e-01	2.4674e+00	2.3210e+00
2.4335e-01	2.5004e+00	2.2943e+00
2.4421e-01	2.5310e+00	2.2657e+00
2.4508e-01	2.5590e+00	2.2356e+00
2.4596e-01	2.5844e+00	2.2044e+00
2.4684e-01	2.6070e+00	2.1722e+00
2.4773e-01	2.6268e+00	2.1395e+00
2.4863e-01	2.6439e+00	2.1066e+00
2.4953e-01	2.6583e+00	2.0738e+00
2.5044e-01	2.6701e+00	2.0414e+00
2.5135e-01	2.6796e+00	2.0096e+00
2.5228e-01	2.6868e+00	1.9787e+00
2.5320e-01	2.6919e+00	1.9487e+00
2.5414e-01	2.6951e+00	1.9200e+00
2.5508e-01	2.6967e+00	1.8925e+00
2.5603e-01	2.6968e+00	1.8663e+00
2.5699e-01	2.6956e+00	1.8416e+00
2.5796e-01	2.6934e+00	1.8184e+00
2.5893e-01	2.6902e+00	1.7965e+00
2.5991e-01	2.6862e+00	1.7762e+00
2.6089e-01	2.6816e+00	1.7573e+00
2.6189e-01	2.6765e+00	1.7397e+00
2.6289e-01	2.6711e+00	1.7236e+00
2.6390e-01	2.6654e+00	1.7087e+00
2.6491e-01	2.6596e+00	1.6951e+00
2.6594e-01	2.6537e+00	1.6827e+00
2.6697e-01	2.6478e+00	1.6715e+00
2.6801e-01	2.6419e+00	1.6613e+00
2.6906e-01	2.6362e+00	1.6522e+00
2.7012e-01	2.6307e+00	1.6441e+00
2.7118e-01	2.6254e+00	1.6369e+00
2.7226e-01	2.6204e+00	1.6306e+00
2.7334e-01	2.6156e+00	1.6251e+00
2.7443e-01	2.6112e+00	1.6203e+00
2.7553e-01	2.6070e+00	1.6163e+00
2.7664e-01	2.6033e+00	1.6130e+00
2.7776e-01	2.5998e+00	1.6104e+00
2.7889e-01	2.5967e+00	1.6083e+00
2.8002e-01	2.5940e+00	1.6069e+00
2.8117e-01	2.5917e+00	1.6060e+00
2.8232e-01	2.5898e+00	1.6057e+00
2.8349e-01	2.5882e+00	1.6059e+00
2.8466e-01	2.5870e+00	1.6066e+00
2.8584e-01	2.5861e+00	1.6078e+00
2.8704e-01	2.5856e+00	1.6096e+00
2.8824e-01	2.5855e+00	1.6119e+00
2.8945e-01	2.5857e+00	1.6147e+00
2.9068e-01	2.5863e+00	1.6181e+00
2.9191e-01	2.5873e+00	1.6221e+00
2.9316e-01	2.5886e+00	1.6269e+00
2.9441e-01	2.5904e+00	1.6325e+00
2.9568e-01	2.5928e+00	1.6389e+00
2.9696e-01	2.5958e+00	1.6464e+00
2.9825e-01	2.5997e+00	1.6550e+00
2.9955e-01	2.6047e+00	1.6648e+00
3.0086e-01	2.6112e+00	1.6758e+00
3.0218e-01	2.6194e+00	1.6880e+00
3.0351e-01	2.6299e+00	1.7012e+00
3.0486e-01	2.6431e+00	1.7153e+00
3.0622e-01	2.6595e+00	1.7297e+00
3.0759e-01	2.6794e+00	1.7438e+00
3.0897e-01	2.7031e+00	1.7569e+00
3.1036e-01	2.7306e+00	1.7680e+00
3.1177e-01	2.7618e+00	1.7761e+00
3.1319e-01	2.7960e+00	1.7802e+00
3.1463e-01	2.8324e+00	1.7794e+00
3.1607e-01	2.8698e+00	1.7731e+00
3.1753e-01	2.9068e+00	1.7609e+00
3.1901e-01	2.9418e+00	1.7432e+00
3.2049e-01	2.9735e+00	1.7206e+00
3.2199e-01	3.0009e+00	1.6943e+00
3.2351e-01	3.0233e+00	1.6654e+00
3.2504e-01	3.0406e+00	1.6353e+00
3.2658e-01	3.0530e+00	1.6053e+00
3.2814e-01	3.0608e+00	1.5763e+00
3.2972e-01	3.0648e+00	1.5492e+00
3.3131e-01	3.0656e+00	1.5243e+00
3.3291e-01	3.0639e+00	1.5020e+00
3.3453e-01	3.0602e+00	1.4825e+00
3.3617e-01	3.0549e+00	1.4658e+00
3.3782e-01	3.0486e+00	1.4520e+00
3.3949e-01	3.0415e+00	1.4411e+00
3.4117e-01	3.0339e+00	1.4332e+00
3.4287e-01	3.0261e+00	1.4284e+00
3.4459e-01	3.0185e+00	1.4270e+00
3.4633e-01	3.0114e+00	1.4291e+00
3.4808e-01	3.0055e+00	1.4351e+00
3.4985e-01	3.0015e+00	1.4451e+00
3.5164e-01	3.0004e+00	1.4593e+00
3.5345e-01	3.0034e+00	1.4773e+00
3.5528e-01	3.0115e+00	1.4988e+00
3.5712e-01	3.0262e+00	1.5229e+00
3.5899e-01	3.0485e+00	1.5482e+00
3.6087e-01	3.0792e+00	1.5730e+00
3.6278e-01	3.1187e+00	1.5951e+00
3.6470e-01	3.1669e+00	1.6123e+00
3.6665e-01	3.2228e+00	1.6222e+00
3.6861e-01	3.2846e+00	1.6225e+00
3.7060e-01	3.3499e+00	1.6117e+00
3.7261e-01	3.4159e+00	1.5889e+00
3.7464e-01	3.4794e+00	1.5542e+00
3.7669e-01	3.5377e+00	1.5087e+00
3.7877e-01	3.5884e+00	1.4543e+00
3.8087e-01	3.6299e+00	1.3933e+00
3.8299e-01	3.6616e+00	1.3283e+00
3.8514e-01	3.6835e+00	1.2617e+00
3.8731e-01	3.6963e+00	1.1955e+00
3.8950e-01	3.7009e+00	1.1313e+00
3.9172e-01	3.6987e+00	1.0702e+00
3.9396e-01	3.6909e+00	1.0130e+00
3.9623e-01	3.6787e+00	9.6006e-01
3.9853e-01	3.6631e+00	9.1137e-01
4.0086e-01	3.6450e+00	8.6690e-01
4.0321e-01	3.6252e+00	8.2645e-01
4.0559e-01	3.6043e+00	7.8974e-01
4.0799e-01	3.5827e+00	7.5648e-01
4.1043e-01	3.5609e+00	7.2635e-01
4.1289e-01	3.5391e+00	6.9905e-01
4.1539e-01	3.5175e+00	6.7429e-01
4.1791e-01	3.4962e+00	6.5181e-01
4.2047e-01	3.4755e+00	6.3136e-01
4.2306e-01	3.4554e+00	6.1272e-01
4.2568e-01	3.4359e+00	5.9569e-01
4.2833e-01	3.4170e+00	5.8009e-01
4.3102e-01	3.3988e+00	5.6577e-01
4.3374e-01	3.3814e+00	5.5257e-01
4.3649e-01	3.3646e+00	5.4037e-01
4.3928e-01	3.3485e+00	5.2905e-01
4.4210e-01	3.3330e+00	5.1851e-01
4.4497e-01	3.3182e+00	5.0866e-01
4.4787e-01	3.3041e+00	4.9941e-01
4.5080e-01	3.2905e+00	4.9067e-01
4.5378e-01	3.2776e+00	4.8238e-01
4.5679e-01	3.2652e+00	4.7446e-01
4.5985e-01	3.2533e+00	4.6684e-01
4.6295e-01	3.2419e+00	4.5946e-01
4.6608e-01	3.2309e+00	4.5224e-01
4.6927e-01	3.2202e+00	4.4510e-01
4.7249e-01	3.2098e+00	4.3799e-01
4.7576e-01	3.1993e+00	4.3084e-01
4.7908e-01	3.1883e+00	4.2374e-01
4.8244e-01	3.1753e+00	4.1778e-01
4.8585e-01	3.1619e+00	4.2360e-01
4.8931e-01	3.1757e+00	4.0794e-01
4.9282e-01	3.1552e+00	3.9341e-01
4.9637e-01	3.1400e+00	3.8901e-01
4.9998e-01	3.1278e+00	3.8614e-01
5.0365e-01	3.1172e+00	3.8374e-01
5.0737e-01	3.1076e+00	3.8159e-01
5.1114e-01	3.0988e+00	3.7961e-01
5.1497e-01	3.0907e+00	3.7774e-01
5.1885e-01	3.0831e+00	3.7597e-01
5.2280e-01	3.0760e+00	3.7427e-01
5.2681e-01	3.0694e+00	3.7265e-01
5.3087e-01	3.0633e+00	3.7108e-01
5.3501e-01	3.0576e+00	3.6956e-01
5.3920e-01	3.0522e+00	3.6806e-01
5.4347e-01	3.0473e+00	3.6659e-01
5.4780e-01	3.0427e+00	3.6513e-01
5.5220e-01	3.0384e+00	3.6368e-01
5.5667e-01	3.0345e+00	3.6222e-01
5.6121e-01	3.0310e+00	3.6073e-01
5.6583e-01	3.0278e+00	3.5923e-01
5.7053e-01	3.0249e+00	3.5768e-01
5.7530e-01	3.0223e+00	3.5608e-01
5.8016e-01	3.0200e+00	3.5443e-01
5.8510e-01	3.0181e+00	3.5270e-01
5.9012e-01	3.0164e+00	3.5088e-01
5.9523e-01	3.0151e+00	3.4897e-01
6.0043e-01	3.0141e+00	3.4695e-01
6.0572e-01	3.0134e+00	3.4480e-01
6.1110e-01	3.0130e+00	3.4251e-01
6.1658e-01	3.0129e+00	3.4007e-01
6.2217e-01	3.0131e+00	3.3744e-01
6.2785e-01	3.0136e+00	3.3462e-01
6.3363e-01	3.0143e+00	3.3158e-01
6.3953e-01	3.0154e+00	3.2830e-01
6.4554e-01	3.0168e+00	3.2475e-01
6.5165e-01	3.0185e+00	3.2091e-01
6.5789e-01	3.0205e+00	3.1673e-01
6.6425e-01	3.0228e+00	3.1218e-01
6.7073e-01	3.0254e+00	3.0723e-01
6.7734e-01	3.0283e+00	3.0182e-01
6.8408e-01	3.0315e+00	2.9589e-01
6.9095e-01	3.0349e+00	2.8939e-01
6.9797e-01	3.0386e+00	2.8223e-01
7.0513e-01	3.0426e+00	2.7432e-01
7.1244e-01	3.0468e+00	2.6555e-01
7.1990e-01	3.0512e+00	2.5577e-01
7.2752e-01	3.0557e+00	2.4481e-01
7.3530e-01	3.0602e+00	2.3243e-01
7.4325e-01	3.0646e+00	2.1830e-01
7.5137e-01	3.0685e+00	2.0200e-01
7.5968e-01	3.0712e+00	1.8289e-01
7.6817e-01	3.0709e+00	1.6026e-01
7.7685e-01	3.0621e+00	1.3544e-01
7.8573e-01	3.0508e+00	1.3784e-01
7.9481e-01	3.0640e+00	8.2428e-02
8.0411e-01	3.0252e+00	6.0849e-02
8.1363e-01	2.9988e+00	5.4600e-02
8.2337e-01	2.9788e+00	5.1434e-02
8.3335e-01	2.9623e+00	4.9340e-02
8.4358e-01	2.9481e+00	4.7745e-02
8.5406e-01	2.9355e+00	4.6427e-02
8.6480e-01	2.9241e+00	4.5280e-02
8.7582e-01	2.9136e+00	4.4249e-02
8.8713e-01	2.9039e+00	4.3302e-02
8.9872e-01	2.8949e+00	4.2417e-02
9.1063e-01	2.8863e+00	4.1581e-02
9.2285e-01	2.8783e+00	4.0785e-02
9.3541e-01	2.8707e+00	4.0022e-02
9.4832e-01	2.8634e+00	3.9287e-02
9.6158e-01	2.8564e+00	3.8576e-02
9.7522e-01	2.8498e+00	3.7886e-02
9.8926e-01	2.8434e+00	3.7216e-02
1.0037e+00	2.8373e+00	3.6562e-02
1.0186e+00	2.8314e+00	3.5923e-02
1.0339e+00	2.8257e+00	3.5299e-02
1.0497e+00	2.8201e+00	3.4688e-02
1.0660e+00	2.8148e+00	3.4090e-02
1.0827e+00	2.8097e+00	3.3502e-02
1.1001e+00	2.8047e+00	3.2926e-02
1.1180e+00	2.7999e+00	3.2359e-02
