Material: main / CdTe / Treharne
Optical constants. R. E. Treharne, A. Seymour-Pierce, K. Durose, K. Hutchings, S. Roncallo, D. Lane, Optical design and fabrication of fully sputtered CdTe/CdS solar cells, J. Phys: Conf. Ser. 286, 012038, (2011) (Numerical data kindly provided Dr. Robert Treharne)
Comments: A CdTe film was deposited on to a soda-lime glass substrate using RF magnetron sputtering. A variable-angle ellipsometer was used to take amplitude and phase change measurements. The refractive index and extinction coefficient was extracted from a multi-oscillator model fit to the ellipsometry data, as a function of wavelength, from 300 to 1500 nm
wavelength (um)	n	k
0.30141754	2.4727297	1.8938408
0.30461	2.543093	1.8881146
0.30780255	2.6128967	1.8751897
0.31099524	2.680781	1.8554502
0.31418805	2.745581	1.8295703
0.31738095	2.8063786	1.7984368
0.32057397	2.862528	1.7630692
0.32376712	2.9136612	1.7245436
0.32696036	2.959673	1.6839259
0.3301537	3.0006964	1.6422148
0.3333471	3.0370688	1.600298
0.33654065	3.0692945	1.5589191
0.33973428	3.0980053	1.5186529
0.34292798	3.1239254	1.4798884
0.34612177	3.1478326	1.4428117
0.34931567	3.1705177	1.4073921
0.3525096	3.1927326	1.3733703
0.35570367	3.2151282	1.3402531
0.35889777	3.2381766	1.3073328
0.36209198	3.2620878	1.2737337
0.3652862	3.2867405	1.2385008
0.36848053	3.311644	1.2007213
0.3716749	3.3359535	1.1596669
0.37486932	3.3585453	1.1149279
0.37806384	3.3781466	1.0665101
0.38125836	3.3934984	1.0148742
0.38445297	3.4035218	0.96090436
0.38764764	3.4074593	0.9058192
0.39084235	3.4049673	0.8510337
0.39403705	3.3961518	0.79800326
0.39723184	3.381541	0.74807036
0.40042664	3.3620102	0.7023401
0.4036215	3.338672	0.66159374
0.40681635	3.3127506	0.62625206
0.41001123	3.2854617	0.5963832
0.4132062	3.257909	0.5717482
0.41640112	3.2310162	0.55187577
0.4195961	3.2054825	0.5361424
0.42279108	3.1817815	0.52385646
0.42598602	3.1601763	0.51432645
0.42918106	3.140756	0.5069125
0.43237607	3.123479	0.5010585
0.43557104	3.1082146	0.4963056
0.43876605	3.094781	0.49229252
0.4419611	3.082974	0.48874697
0.4451561	3.0725882	0.4854718
0.44835107	3.0634313	0.48233008
0.45154605	3.0553288	0.4792306
0.45474103	3.048129	0.47611567
0.45793597	3.0417023	0.472951
0.46113092	3.035939	0.46971825
0.46432584	3.030747	0.4664093
0.4675207	3.0260494	0.4630225
0.47071558	3.0217822	0.45955992
0.4739104	3.017891	0.4560258
0.47710516	3.0143301	0.45242533
0.4802999	3.0110607	0.44876406
0.48349463	3.008049	0.44504744
0.4866893	3.0052662	0.44128087
0.48988388	3.002687	0.43746945
0.49307846	3.000289	0.4336178
0.496273	2.9980524	0.4297304
0.49946744	2.9959598	0.4258114
0.50266187	2.9939952	0.42186463
0.5058562	2.9921446	0.4178939
0.50905048	2.9903948	0.41390273
0.5122447	2.9887342	0.40989462
0.51543884	2.9871519	0.40587297
0.51863293	2.985638	0.4018411
0.52182684	2.9841835	0.39780262
0.5250208	2.9827802	0.39376077
0.5282146	2.9814203	0.38971928
0.5314083	2.980097	0.38568172
0.534602	2.9788039	0.38165194
0.53779553	2.9775352	0.3776339
0.5409891	2.9762862	0.3736316
0.54418243	2.975052	0.36964944
0.5473757	2.973829	0.36569172
0.5505689	2.9726143	0.36176288
0.5537619	2.9714053	0.35786763
0.5569549	2.9702003	0.35401046
0.56014777	2.9689982	0.35019597
0.56334045	2.9677987	0.34642875
0.5665331	2.9666026	0.34271318
0.5697256	2.9654107	0.33905342
0.57291797	2.9642248	0.33545336
0.5761102	2.963048	0.33191654
0.5793023	2.961883	0.3284461
0.58249426	2.9607337	0.32504454
0.58568616	2.9596043	0.32171392
0.5888778	2.9584994	0.31845558
0.59206946	2.9574244	0.31527013
0.59526086	2.9563847	0.31215748
0.59845215	2.9553854	0.3091167
0.60164325	2.9544327	0.30614612
0.6048342	2.9535322	0.3032432
0.608025	2.952689	0.30040452
0.6112157	2.9519083	0.29762602
0.6144062	2.9511955	0.2949028
0.61759656	2.9505548	0.29222932
0.62078674	2.94999	0.2895993
0.6239767	2.9495044	0.287006
0.62716656	2.9491005	0.28444213
0.6303562	2.9487805	0.2819001
0.63354565	2.9485455	0.27937198
0.6367349	2.9483953	0.2768496
0.639924	2.9483294	0.27432474
0.6431129	2.9483469	0.27178928
0.64630164	2.9484453	0.2692351
0.6494902	2.9486215	0.2666544
0.6526785	2.9488719	0.2640396
0.65586664	2.9491918	0.26138356
0.65905457	2.9495764	0.25867963
0.6622423	2.9500198	0.25592166
0.6654298	2.950516	0.253104
0.66861707	2.9510584	0.25022188
0.6718042	2.9516397	0.24727085
0.6749911	2.9522526	0.24424748
0.67817773	2.9528902	0.2411488
0.68136414	2.9535444	0.23797277
0.68455035	2.9542077	0.23471774
0.68773627	2.9548726	0.2313831
0.690922	2.9555316	0.2279686
0.69410754	2.9561775	0.22447483
0.6972928	2.956803	0.22090286
0.70047784	2.9574015	0.21725431
0.7036626	2.9579663	0.21353145
0.7068471	2.9584916	0.20973687
0.7100314	2.9589713	0.20587362
0.71321545	2.9594004	0.20194511
0.71639923	2.959774	0.19795507
0.7195827	2.9600875	0.19390757
0.722766	2.9603374	0.18980676
0.7259489	2.96052	0.18565705
0.72913165	2.9606323	0.1814629
0.7323141	2.9606721	0.17722887
0.7354963	2.9606373	0.17295964
0.73867816	2.9605265	0.1686598
0.74185974	2.9603388	0.16433395
0.74504114	2.9600735	0.15998651
0.74822217	2.9597309	0.15562193
0.75140295	2.9593112	0.15124449
0.7545834	2.9588158	0.1468583
0.75776355	2.9582465	0.14246735
0.7609435	2.9576051	0.13807537
0.764123	2.9568954	0.13368596
0.7673023	2.9561214	0.12930231
0.77048126	2.955289	0.12492743
0.7736599	2.9544053	0.12056359
0.77683826	2.953481	0.11621183
0.7800163	2.9525301	0.111870795
0.783194	2.9515717	0.107534096
0.7863714	2.9506285	0.10318649
0.78954846	2.9497259	0.09879866
0.7927252	2.9488854	0.09432188
0.7959016	2.9481125	0.08968457
0.7990777	2.9473825	0.08479613
0.8022534	2.9466255	0.079559766
0.80542883	2.9457166	0.073896036
0.8086039	2.944482	0.06777324
0.8117786	2.9427214	0.061234307
0.814953	2.940245	0.054410964
0.818127	2.936919	0.047515552
0.82130066	2.9326992	0.040810145
0.824474	2.9276478	0.034560412
0.827647	2.9219236	0.028987786
0.8308195	2.915749	0.024233563
0.8339918	2.9093688	0.020344255
0.8371636	2.9030085	0.017279591
0.8403351	2.8968441	0.01493552
0.8435062	2.8909905	0.013175327
0.84667694	2.8855045	0.011857492
0.8498473	2.8803947	0.010855394
0.8530173	2.8756397	0.010067711
0.8561868	2.8712022	0.009420424
0.8593561	2.8670402	0.008863415
0.8625249	2.8631139	0.008365112
0.86569324	2.8593886	0.007906777
0.8688613	2.8558362	0.0074778018
0.87202893	2.8524342	0.0070724576
0.8751961	2.8491645	0.006687622
0.8783629	2.8460135	0.0063215513
0.8815293	2.8429694	0.005973159
0.8846953	2.8400235	0.0056416565
0.88786084	2.837168	0.005326393
0.891026	2.8343961	0.0050267484
0.89419073	2.8317027	0.0047421344
0.8973551	2.8290827	0.0044719707
0.9005189	2.8265321	0.004215692
0.9036823	2.824047	0.003972733
0.9068454	2.8216243	0.0037425202
0.91000793	2.8192606	0.003524528
0.9131701	2.8169532	0.0033181992
0.9163317	2.8147	0.0031230294
0.91949304	2.812498	0.0029384901
0.9226538	2.8103461	0.002764102
0.92581415	2.8082416	0.0025993725
0.9289741	2.8061826	0.0024438358
0.9321335	2.804168	0.0022970508
0.9352925	2.8021958	0.0021585734
0.93845105	2.8002646	0.002027985
0.9416091	2.798373	0.0019048908
0.9447667	2.7965195	0.0017888958
0.9479238	2.7947032	0.0016796328
0.95108044	2.7929227	0.0015767456
0.95423663	2.7911768	0.0014798938
0.9573923	2.7894647	0.0013887518
0.9605475	2.7877853	0.0013030086
0.9637023	2.786137	0.0012223654
0.96685645	2.78452	0.0011465445
0.97001013	2.7829325	0.0010752741
0.9731634	2.781374	0.0010082982
0.9763161	2.7798436	0.0009453734
0.9794684	2.7783406	0.0008862685
0.9826201	2.776864	0.000830764
0.98577136	2.7754135	0.0007786517
0.98892206	2.773988	0.0007297359
0.99207227	2.7725868	0.000683828
0.995222	2.7712095	0.0006407511
0.9983712	2.7698555	0.0006003378
1.01169275	2.764368	0.0004553209
1.01853125	2.761693	0.0003948844
1.0253698	2.7591076	0.0003423824
1.0322083	2.756607	0.0002967992
1.0390466	2.754187	0.0002572432
1.0458853	2.7518437	0.0002229323
1.0527238	2.7495732	0.0001931833
1.0595623	2.747372	0.0001673974
1.066401	2.7452366	0.0001450531
1.0732396	2.743164	0.0001256957
1.0800784	2.7411516	0.0001089288
1.0869172	2.7391963	9.440767E-005
1.0937562	2.7372959	8.1832855E-005
1.1005955	2.735448	0.000070944
1.1074347	2.7336497	6.151526E-005
1.114274	2.7318997	5.3350854E-005
1.1211135	2.7301955	4.6280777E-005
1.1279534	2.7285354	4.015787E-005
1.1347932	2.7269177	3.4854664E-005
1.1416334	2.7253408	3.0260797E-005
1.1484738	2.7238028	2.6280737E-005
1.1553143	2.7223024	2.2831773E-005
1.1621552	2.720838	1.9842444E-005
1.1689963	2.7194085	1.7250846E-005
1.1758376	2.7180126	1.5003515E-005
1.1826793	2.716649	1.3054123E-005
1.1895212	2.7153165	1.1362719E-005
1.1963635	2.714014	9.894657E-006
1.203206	2.712741	0.00000862
1.2100491	2.7114954	0.000007513
1.2168923	2.7102773	6.5511117E-006
1.223736	2.7090852	5.7150687E-006
1.23058	2.7079184	4.9881064E-006
1.2374244	2.7067764	4.3557384E-006
1.2442693	2.7056577	3.8054263E-006
1.2511145	2.7045624	3.3263186E-006
1.2579602	2.703489	0.000002909
1.2648064	2.7024376	2.5453767E-006
1.271653	2.7014067	2.2283657E-006
1.2785	2.7003965	1.9518695E-006
1.2853475	2.6994057	1.7105958E-006
1.2921956	2.698434	0.0000015
1.2990442	2.6974812	0.000001316
1.3058933	2.696546	1.1551848E-006
1.3127429	2.6956284	1.0146065E-006
1.3195931	2.694728	8.9163063E-007
1.326444	2.6938438	0.000000784
1.3332953	2.692976	6.897461E-007
1.3401472	2.6921237	6.071678E-007
1.3469999	2.6912866	5.3477834E-007
1.353853	2.6904643	4.7128876E-007
1.3607068	2.6896565	4.1557345E-007
1.3675613	2.6888626	3.6665432E-007
1.3744165	2.6880825	3.2367913E-007
1.3812723	2.6873155	2.8590523E-007
1.3881289	2.6865616	2.52685E-007
1.3949861	2.6858203	2.2345348E-007
1.401844	2.6850913	1.9771767E-007
1.4087028	2.6843743	0.000000175
1.4155621	2.683669	1.5506488E-007
1.4224222	2.682975	1.374432E-007
1.4292832	2.6822925	1.218943E-007
1.436145	2.6816206	1.0816659E-007
1.4430076	2.6809592	0.000000096
1.4498708	2.6803083	8.532251E-008
1.4567351	2.6796677	7.584435E-008
1.4636001	2.6790369	6.74577E-008
1.470466	2.6784155	0.00000006
1.4773328	2.6778038	5.3455647E-008
1.4842003	2.677201	4.7626266E-008
1.4910688	2.6766074	4.245666E-008
1.4979382	2.6760225	3.786968E-008
