Material: main / V / Johnson
Optical constants. P. B. Johnson and R. W. Christy. Optical constants of transition metals: Ti, V, Cr, Mn, Fe, Co, Ni, and Pd, Phys. Rev. B 9, 5056-5070 (1974)
Comments: Room temperature
wavelength (um)	n	k
0.188	1.47	1.90
0.192	1.54	1.92
0.195	1.58	1.93
0.199	1.62	1.94
0.203	1.65	1.94
0.207	1.68	1.94
0.212	1.66	1.94
0.216	1.65	1.95
0.221	1.63	1.98
0.226	1.62	2.01
0.231	1.59	2.07
0.237	1.58	2.14
0.243	1.57	2.20
0.249	1.60	2.29
0.255	1.64	2.37
0.262	1.70	2.45
0.269	1.77	2.55
0.276	1.81	2.63
0.284	1.87	2.73
0.292	1.93	2.84
0.301	2.07	2.95
0.311	2.17	3.06
0.320	2.28	3.15
0.332	2.37	3.22
0.342	2.42	3.29
0.354	2.51	3.34
0.368	2.68	3.40
0.381	2.87	3.45
0.397	3.07	3.48
0.413	3.31	3.49
0.431	3.52	3.49
0.451	3.59	3.46
0.471	3.81	3.38
0.496	3.92	3.26
0.521	3.86	3.18
0.549	4.00	3.04
0.582	3.83	3.00
0.617	3.54	3.02
0.659	3.25	3.09
0.704	3.18	3.15
0.756	3.20	3.20
0.821	3.16	3.25
0.892	3.12	3.34
0.984	2.94	3.50
1.088	2.87	3.78
1.216	2.70	4.33
1.393	2.64	5.18
1.610	2.77	6.34
1.937	2.79	7.90
