Material: main / V / Palm
Optical constants. K. J. Palm, J. B. Murray, T. C. Narayan, J. N. Munday. Dynamic optical properties of metal hydrides, ACS Photonics 5, 4677-4686 (2018)(Numerical data kindly provided by Kevin Palm)
Comments: Vanadium, Room temperature, 200 nm thin film, electron beam evaporated, vacuum annealed 2 hr 350 Â°C.
wavelength (um)	n	k
0.301107483	1.637417	1.729526
0.30430069	1.647707	1.741624
0.307493866	1.65772	1.754265
0.310687073	1.667694	1.767534
0.31388028	1.677874	1.781454
0.317073456	1.688522	1.795986
0.320266632	1.699929	1.810974
0.323459808	1.712236	1.826077
0.326652954	1.725389	1.841026
0.32984613	1.739292	1.85564
0.333039246	1.75383	1.869789
0.33623233	1.768883	1.883386
0.339425385	1.784329	1.896373
0.342618439	1.800044	1.90872
0.345811462	1.815903	1.920424
0.349004425	1.831773	1.931527
0.352197357	1.847586	1.942123
0.355390259	1.863316	1.952279
0.358583099	1.878951	1.962046
0.361775909	1.894484	1.971465
0.364968658	1.909913	1.980569
0.368161346	1.925239	1.989386
0.371353973	1.940463	1.997939
0.37454657	1.95559	2.006248
0.377739075	1.970622	2.014328
0.380931549	1.985566	2.022195
0.384123932	2.000425	2.02986
0.387316223	2.015205	2.037332
0.390508484	2.029911	2.044621
0.393700623	2.044548	2.051734
0.396892731	2.059121	2.058677
0.400084717	2.073638	2.065456
0.403276642	2.088104	2.072075
0.406468445	2.102525	2.078535
0.409660156	2.11691	2.08484
0.412851807	2.131266	2.090989
0.416043304	2.145602	2.096982
0.419234772	2.15993	2.102813
0.422426086	2.174265	2.108474
0.425617279	2.188613	2.113937
0.428808411	2.202966	2.11918
0.43199942	2.217308	2.124189
0.435190277	2.231626	2.128954
0.438381012	2.245902	2.133468
0.441571625	2.260122	2.137728
0.444762146	2.274271	2.141732
0.447952545	2.288332	2.14548
0.451142761	2.302292	2.148974
0.454332855	2.316135	2.152218
0.457522858	2.329849	2.155216
0.460712708	2.343419	2.157974
0.463902405	2.356832	2.160498
0.467091888	2.370074	2.162796
0.470281311	2.38313	2.164878
0.47347052	2.395986	2.166758
0.476659607	2.40863	2.168458
0.479848541	2.421062	2.169996
0.483037292	2.43328	2.171388
0.486225891	2.445288	2.172648
0.489414307	2.457086	2.173789
0.492602539	2.468678	2.17482
0.495790619	2.480066	2.175751
0.498978516	2.491253	2.176593
0.50216626	2.502243	2.177352
0.505353821	2.513038	2.178037
0.508541168	2.523643	2.178654
0.511728333	2.53406	2.17921
0.514915283	2.544294	2.17971
0.518102051	2.554347	2.180161
0.521288696	2.564223	2.180566
0.524475037	2.573924	2.18093
0.527661255	2.583455	2.181259
0.530847168	2.592818	2.181556
0.534032959	2.602016	2.181825
0.537218506	2.611052	2.18207
0.540403809	2.619928	2.182294
0.543588928	2.628648	2.182502
0.546773804	2.637215	2.182698
0.549958496	2.645632	2.182883
0.553142944	2.653903	2.183061
0.556327148	2.662029	2.183235
0.559511108	2.670014	2.183407
0.562694824	2.677862	2.183579
0.565878296	2.685574	2.183754
0.569061646	2.693154	2.183933
0.572244629	2.700604	2.184118
0.575427368	2.707927	2.184311
0.578609863	2.715125	2.184513
0.581792114	2.7222	2.184727
0.584974121	2.729155	2.184953
0.588155884	2.735992	2.185193
0.591337341	2.742712	2.185448
0.594518555	2.749318	2.185719
0.597699524	2.755812	2.186007
0.600880188	2.762195	2.186315
0.604060608	2.768469	2.186642
0.607240723	2.774636	2.18699
0.610420532	2.780695	2.18736
0.613600098	2.78665	2.187754
0.616779358	2.7925	2.188172
0.619958374	2.798246	2.188616
0.623137024	2.803887	2.189089
0.62631543	2.809427	2.189594
0.62949353	2.814865	2.190135
0.632671265	2.820207	2.190715
0.635848755	2.825454	2.191334
0.639026001	2.83061	2.191997
0.64220282	2.835676	2.192703
0.645379395	2.840658	2.193454
0.648555664	2.845557	2.194251
0.651731567	2.850376	2.195096
0.654907166	2.855118	2.195989
0.658082458	2.859787	2.196931
0.661257446	2.864384	2.197923
0.664432007	2.868912	2.198964
0.667606323	2.873375	2.200055
0.670780273	2.877774	2.201196
0.673953857	2.882112	2.202388
0.677127136	2.886392	2.203631
0.680300049	2.890615	2.204923
0.683472656	2.894784	2.206267
0.686644897	2.898902	2.20766
0.689816772	2.90297	2.209103
0.69298822	2.90699	2.210596
0.696159424	2.910965	2.212138
0.6993302	2.914896	2.213729
0.70250061	2.918785	2.215369
0.705670715	2.922633	2.217057
0.708840393	2.926443	2.218793
0.712009705	2.930217	2.220576
0.715178589	2.933954	2.222405
0.718347168	2.937658	2.224281
0.721515381	2.94133	2.226203
0.724683167	2.94497	2.22817
0.727850525	2.94858	2.230182
0.731017578	2.952161	2.232239
0.734184204	2.955715	2.234339
0.737350403	2.959242	2.236482
0.740516235	2.962742	2.238669
0.743681641	2.966218	2.2409
0.746846619	2.96967	2.243175
0.75001123	2.9731	2.245493
0.753175415	2.976509	2.247855
0.756339233	2.979899	2.25026
0.759502563	2.983272	2.252708
0.762665527	2.986628	2.255199
0.765828003	2.989969	2.257732
0.768990112	2.993297	2.260307
0.772151733	2.996613	2.262922
0.775312988	2.999917	2.265578
0.778473755	3.003212	2.268275
0.781634155	3.006499	2.27101
0.784794067	3.009778	2.273784
0.787953552	3.013052	2.276596
0.79111261	3.01632	2.279446
0.794271118	3.019584	2.282332
0.797429321	3.022846	2.285254
0.800586975	3.026106	2.288211
0.803744202	3.029365	2.291202
0.80690094	3.032624	2.294227
0.810057251	3.035884	2.297285
0.813213013	3.039146	2.300375
0.816368408	3.04241	2.303496
0.819523254	3.045679	2.306648
0.822677734	3.048952	2.309829
0.825831665	3.052229	2.313039
0.828985046	3.055513	2.316278
0.832138062	3.058804	2.319543
0.835290527	3.062101	2.322835
0.838442505	3.065407	2.326152
0.841594055	3.068721	2.329494
0.844744995	3.072044	2.332861
0.847895508	3.075377	2.33625
0.851045593	3.07872	2.339662
0.854195007	3.082074	2.343095
0.857344055	3.08544	2.346549
0.860492554	3.088818	2.350023
0.863640503	3.092208	2.353516
0.866787964	3.09561	2.357027
0.869934937	3.099027	2.360556
0.87308136	3.102457	2.364101
0.876227356	3.105901	2.367663
0.879372681	3.10936	2.371239
0.882517456	3.112834	2.37483
0.885661804	3.116323	2.378433
0.888805664	3.119829	2.38205
0.891948914	3.123351	2.385679
0.895091614	3.12689	2.389318
0.898233765	3.130446	2.392967
0.901375366	3.13402	2.396626
0.904516479	3.137612	2.400293
0.907656921	3.141223	2.403967
0.910796997	3.144854	2.407647
0.91393634	3.148505	2.411331
0.917075195	3.152176	2.415017
0.920213501	3.155866	2.418705
0.923351257	3.159575	2.422392
0.926488403	3.163303	2.426078
0.929625	3.16705	2.429762
0.932760925	3.170814	2.433442
0.935896362	3.174596	2.437118
0.93903125	3.178395	2.440789
0.942165527	3.18221	2.444453
0.945299194	3.186041	2.448111
0.948432312	3.189888	2.451761
0.951564819	3.193749	2.455402
0.954696777	3.197625	2.459035
0.957828125	3.201514	2.462658
0.960958801	3.205417	2.466271
0.964088989	3.209332	2.469874
0.967218445	3.213259	2.473465
0.970347351	3.217199	2.477045
0.973475708	3.221148	2.480612
0.976603333	3.225109	2.484167
0.979730347	3.229079	2.487709
0.982856812	3.233059	2.491237
0.985982727	3.237048	2.494752
0.98910791	3.241045	2.498254
0.992232544	3.24505	2.50174
0.995356445	3.249062	2.505213
0.998479797	3.253081	2.508671
1.014837524	3.274234	2.526541
1.021614868	3.283039	2.533825
1.028394165	3.291863	2.541037
1.035175293	3.300702	2.548178
1.041958252	3.309551	2.555246
1.048743286	3.318407	2.56224
1.055530029	3.327264	2.569161
1.062318848	3.33612	2.576009
1.069109497	3.344969	2.582783
1.075901978	3.353808	2.589484
1.082696411	3.362634	2.596113
1.089492676	3.371443	2.602669
1.096290894	3.38023	2.609154
1.103091064	3.388994	2.615569
1.109893066	3.39773	2.621914
1.116697021	3.406435	2.628191
1.123502686	3.415106	2.634402
1.130310425	3.423738	2.640547
1.137119995	3.43233	2.646628
1.143931396	3.440878	2.652648
1.150744873	3.449378	2.658607
1.157560059	3.457827	2.664509
1.164377197	3.46622	2.670355
1.171196289	3.474555	2.676148
1.178017212	3.482826	2.681893
1.184840088	3.491026	2.687593
1.191664795	3.499153	2.693259
1.198491455	3.507207	2.6989
1.205319946	3.51519	2.704524
1.212150269	3.523104	2.710135
1.218982666	3.530953	2.71574
1.225816772	3.538739	2.721344
1.232652954	3.546467	2.726949
1.239490845	3.55414	2.73256
1.246330811	3.561761	2.738179
1.253172485	3.569334	2.743809
1.260016113	3.576862	2.749452
1.266861572	3.58435	2.755109
1.273709106	3.5918	2.760782
1.28055835	3.599216	2.766473
1.287409668	3.606602	2.772182
1.294262695	3.613961	2.777909
1.301117676	3.621295	2.783655
1.307974609	3.628608	2.789422
1.314833374	3.635903	2.795208
1.321694092	3.643183	2.801013
1.328556519	3.65045	2.806838
1.335421021	3.657709	2.812681
1.342287354	3.66496	2.818544
1.349155518	3.672207	2.824425
1.356025635	3.679451	2.830323
1.362897705	3.686697	2.836237
1.369771606	3.693945	2.842168
1.376647339	3.701198	2.848114
1.383525024	3.708458	2.854074
1.390404541	3.715727	2.860048
1.397285889	3.723007	2.866034
1.404169312	3.7303	2.87203
1.411054443	3.737608	2.878037
1.41794165	3.744932	2.884052
1.424830688	3.752275	2.890075
1.431721436	3.759637	2.896105
1.438614258	3.767021	2.902139
1.445508911	3.774427	2.908178
1.452405518	3.781858	2.914219
1.459303955	3.789315	2.920261
1.466204224	3.796798	2.926303
1.473106323	3.80431	2.932344
1.480010498	3.811852	2.938382
1.486916382	3.819424	2.944416
1.493824341	3.827029	2.950444
1.500734131	3.834667	2.956465
1.507645752	3.842339	2.962478
1.514559204	3.850046	2.968482
1.521474609	3.85779	2.974474
1.528391846	3.865571	2.980453
1.535311035	3.873391	2.986419
1.542232056	3.881251	2.992369
1.549155029	3.889151	2.998302
1.556079834	3.897094	3.004217
1.563006592	3.905078	3.010112
1.569935181	3.913107	3.015986
1.576865601	3.921181	3.021837
1.583797974	3.9293	3.027663
1.590732178	3.937467	3.033464
1.597668335	3.945681	3.039237
1.604606323	3.953945	3.044981
1.611546143	3.962259	3.050694
1.618488037	3.970625	3.056375
1.625431641	3.979045	3.062021
1.632377197	3.987519	3.067632
1.639324585	3.996048	3.073205
1.646274048	4.004636	3.078738
1.65322522	4.013284	3.084229
1.660178101	4.021992	3.089675
1.667133179	4.030766	3.095076
1.674090088	4.039605	3.100426
1.681048584	4.048514	3.105725
