Material: main / PbSe / Suzuki
Optical constants. N. Suzuki, K. Sawai, S. Adachi. Optical properties of PbSe, J. Appl. Phys. 77, 1249-1255 (1995)[Calculation script (Python)]
Comments: Fit of author's experimental data to a simplified model of the interband transitions (MDF). Room Temperature.
wavelength (um)	n	k
2.2960e-01	8.9878e-01	2.0102e+00
2.3033e-01	9.0261e-01	2.0182e+00
2.3106e-01	9.0649e-01	2.0262e+00
2.3179e-01	9.1042e-01	2.0343e+00
2.3253e-01	9.1439e-01	2.0424e+00
2.3328e-01	9.1840e-01	2.0506e+00
2.3403e-01	9.2247e-01	2.0587e+00
2.3478e-01	9.2658e-01	2.0670e+00
2.3554e-01	9.3074e-01	2.0752e+00
2.3631e-01	9.3495e-01	2.0835e+00
2.3708e-01	9.3921e-01	2.0919e+00
2.3785e-01	9.4352e-01	2.1003e+00
2.3863e-01	9.4788e-01	2.1087e+00
2.3942e-01	9.5229e-01	2.1171e+00
2.4021e-01	9.5675e-01	2.1256e+00
2.4100e-01	9.6127e-01	2.1342e+00
2.4180e-01	9.6583e-01	2.1427e+00
2.4261e-01	9.7046e-01	2.1513e+00
2.4342e-01	9.7513e-01	2.1600e+00
2.4424e-01	9.7986e-01	2.1687e+00
2.4506e-01	9.8465e-01	2.1774e+00
2.4589e-01	9.8949e-01	2.1861e+00
2.4672e-01	9.9439e-01	2.1949e+00
2.4756e-01	9.9935e-01	2.2038e+00
2.4841e-01	1.0044e+00	2.2126e+00
2.4926e-01	1.0094e+00	2.2215e+00
2.5011e-01	1.0146e+00	2.2305e+00
2.5098e-01	1.0197e+00	2.2394e+00
2.5184e-01	1.0250e+00	2.2484e+00
2.5272e-01	1.0303e+00	2.2574e+00
2.5360e-01	1.0356e+00	2.2665e+00
2.5449e-01	1.0411e+00	2.2756e+00
2.5538e-01	1.0465e+00	2.2847e+00
2.5628e-01	1.0521e+00	2.2939e+00
2.5718e-01	1.0577e+00	2.3030e+00
2.5810e-01	1.0633e+00	2.3122e+00
2.5901e-01	1.0690e+00	2.3214e+00
2.5994e-01	1.0747e+00	2.3307e+00
2.6087e-01	1.0805e+00	2.3399e+00
2.6181e-01	1.0864e+00	2.3492e+00
2.6275e-01	1.0923e+00	2.3585e+00
2.6371e-01	1.0983e+00	2.3678e+00
2.6467e-01	1.1043e+00	2.3771e+00
2.6563e-01	1.1103e+00	2.3865e+00
2.6660e-01	1.1164e+00	2.3958e+00
2.6758e-01	1.1225e+00	2.4052e+00
2.6857e-01	1.1286e+00	2.4145e+00
2.6957e-01	1.1348e+00	2.4239e+00
2.7057e-01	1.1410e+00	2.4333e+00
2.7158e-01	1.1472e+00	2.4427e+00
2.7259e-01	1.1534e+00	2.4520e+00
2.7362e-01	1.1596e+00	2.4614e+00
2.7465e-01	1.1658e+00	2.4708e+00
2.7569e-01	1.1719e+00	2.4801e+00
2.7674e-01	1.1780e+00	2.4895e+00
2.7780e-01	1.1841e+00	2.4989e+00
2.7886e-01	1.1902e+00	2.5083e+00
2.7993e-01	1.1961e+00	2.5177e+00
2.8101e-01	1.2020e+00	2.5271e+00
2.8210e-01	1.2077e+00	2.5365e+00
2.8320e-01	1.2133e+00	2.5460e+00
2.8431e-01	1.2188e+00	2.5556e+00
2.8542e-01	1.2241e+00	2.5652e+00
2.8655e-01	1.2292e+00	2.5749e+00
2.8768e-01	1.2341e+00	2.5847e+00
2.8882e-01	1.2387e+00	2.5947e+00
2.8997e-01	1.2432e+00	2.6048e+00
2.9113e-01	1.2473e+00	2.6152e+00
2.9230e-01	1.2512e+00	2.6259e+00
2.9348e-01	1.2548e+00	2.6369e+00
2.9467e-01	1.2581e+00	2.6483e+00
2.9586e-01	1.2612e+00	2.6602e+00
2.9707e-01	1.2641e+00	2.6726e+00
2.9829e-01	1.2667e+00	2.6856e+00
2.9952e-01	1.2692e+00	2.6992e+00
3.0075e-01	1.2715e+00	2.7136e+00
3.0200e-01	1.2739e+00	2.7287e+00
3.0326e-01	1.2763e+00	2.7446e+00
3.0453e-01	1.2788e+00	2.7613e+00
3.0581e-01	1.2815e+00	2.7788e+00
3.0710e-01	1.2846e+00	2.7972e+00
3.0840e-01	1.2880e+00	2.8164e+00
3.0971e-01	1.2918e+00	2.8363e+00
3.1104e-01	1.2962e+00	2.8570e+00
3.1237e-01	1.3012e+00	2.8785e+00
3.1372e-01	1.3068e+00	2.9006e+00
3.1507e-01	1.3131e+00	2.9233e+00
3.1644e-01	1.3202e+00	2.9466e+00
3.1783e-01	1.3279e+00	2.9704e+00
3.1922e-01	1.3365e+00	2.9947e+00
3.2063e-01	1.3458e+00	3.0194e+00
3.2205e-01	1.3560e+00	3.0445e+00
3.2348e-01	1.3669e+00	3.0699e+00
3.2492e-01	1.3787e+00	3.0957e+00
3.2638e-01	1.3913e+00	3.1217e+00
3.2785e-01	1.4047e+00	3.1480e+00
3.2933e-01	1.4189e+00	3.1745e+00
3.3083e-01	1.4339e+00	3.2012e+00
3.3234e-01	1.4498e+00	3.2281e+00
3.3386e-01	1.4665e+00	3.2552e+00
3.3540e-01	1.4841e+00	3.2823e+00
3.3695e-01	1.5025e+00	3.3096e+00
3.3852e-01	1.5217e+00	3.3371e+00
3.4010e-01	1.5418e+00	3.3646e+00
3.4170e-01	1.5628e+00	3.3921e+00
3.4331e-01	1.5847e+00	3.4197e+00
3.4494e-01	1.6074e+00	3.4474e+00
3.4658e-01	1.6310e+00	3.4751e+00
3.4824e-01	1.6556e+00	3.5028e+00
3.4991e-01	1.6811e+00	3.5305e+00
3.5160e-01	1.7075e+00	3.5582e+00
3.5331e-01	1.7349e+00	3.5858e+00
3.5503e-01	1.7633e+00	3.6133e+00
3.5677e-01	1.7927e+00	3.6408e+00
3.5853e-01	1.8231e+00	3.6681e+00
3.6031e-01	1.8546e+00	3.6953e+00
3.6210e-01	1.8871e+00	3.7223e+00
3.6391e-01	1.9207e+00	3.7491e+00
3.6574e-01	1.9554e+00	3.7757e+00
3.6758e-01	1.9912e+00	3.8020e+00
3.6945e-01	2.0282e+00	3.8280e+00
3.7133e-01	2.0663e+00	3.8537e+00
3.7324e-01	2.1057e+00	3.8789e+00
3.7516e-01	2.1462e+00	3.9038e+00
3.7711e-01	2.1880e+00	3.9281e+00
3.7907e-01	2.2310e+00	3.9519e+00
3.8106e-01	2.2753e+00	3.9751e+00
3.8306e-01	2.3209e+00	3.9977e+00
3.8509e-01	2.3678e+00	4.0195e+00
3.8714e-01	2.4159e+00	4.0405e+00
3.8921e-01	2.4654e+00	4.0607e+00
3.9130e-01	2.5162e+00	4.0799e+00
3.9341e-01	2.5684e+00	4.0982e+00
3.9555e-01	2.6218e+00	4.1153e+00
3.9771e-01	2.6765e+00	4.1312e+00
3.9990e-01	2.7325e+00	4.1459e+00
4.0211e-01	2.7898e+00	4.1592e+00
4.0434e-01	2.8483e+00	4.1711e+00
4.0660e-01	2.9080e+00	4.1814e+00
4.0888e-01	2.9689e+00	4.1901e+00
4.1119e-01	3.0308e+00	4.1970e+00
4.1353e-01	3.0938e+00	4.2020e+00
4.1589e-01	3.1578e+00	4.2051e+00
4.1828e-01	3.2226e+00	4.2062e+00
4.2070e-01	3.2883e+00	4.2051e+00
4.2315e-01	3.3547e+00	4.2018e+00
4.2562e-01	3.4216e+00	4.1962e+00
4.2812e-01	3.4890e+00	4.1881e+00
4.3066e-01	3.5567e+00	4.1777e+00
4.3322e-01	3.6247e+00	4.1646e+00
4.3581e-01	3.6927e+00	4.1490e+00
4.3844e-01	3.7605e+00	4.1308e+00
4.4110e-01	3.8281e+00	4.1099e+00
4.4379e-01	3.8952e+00	4.0864e+00
4.4651e-01	3.9617e+00	4.0601e+00
4.4926e-01	4.0274e+00	4.0312e+00
4.5205e-01	4.0921e+00	3.9997e+00
4.5488e-01	4.1557e+00	3.9656e+00
4.5774e-01	4.2179e+00	3.9290e+00
4.6064e-01	4.2786e+00	3.8899e+00
4.6357e-01	4.3375e+00	3.8485e+00
4.6654e-01	4.3947e+00	3.8049e+00
4.6955e-01	4.4499e+00	3.7591e+00
4.7260e-01	4.5029e+00	3.7114e+00
4.7569e-01	4.5537e+00	3.6618e+00
4.7882e-01	4.6021e+00	3.6106e+00
4.8199e-01	4.6480e+00	3.5579e+00
4.8520e-01	4.6914e+00	3.5038e+00
4.8846e-01	4.7322e+00	3.4487e+00
4.9176e-01	4.7704e+00	3.3926e+00
4.9510e-01	4.8058e+00	3.3357e+00
4.9849e-01	4.8386e+00	3.2782e+00
5.0193e-01	4.8686e+00	3.2204e+00
5.0542e-01	4.8960e+00	3.1623e+00
5.0895e-01	4.9207e+00	3.1041e+00
5.1254e-01	4.9428e+00	3.0461e+00
5.1617e-01	4.9623e+00	2.9884e+00
5.1986e-01	4.9793e+00	2.9310e+00
5.2360e-01	4.9938e+00	2.8743e+00
5.2739e-01	5.0060e+00	2.8183e+00
5.3124e-01	5.0159e+00	2.7631e+00
5.3514e-01	5.0237e+00	2.7089e+00
5.3911e-01	5.0293e+00	2.6557e+00
5.4313e-01	5.0329e+00	2.6037e+00
5.4721e-01	5.0347e+00	2.5530e+00
5.5136e-01	5.0346e+00	2.5036e+00
5.5557e-01	5.0329e+00	2.4556e+00
5.5984e-01	5.0296e+00	2.4091e+00
5.6418e-01	5.0248e+00	2.3642e+00
5.6859e-01	5.0186e+00	2.3210e+00
5.7307e-01	5.0112e+00	2.2794e+00
5.7761e-01	5.0026e+00	2.2396e+00
5.8223e-01	4.9929e+00	2.2016e+00
5.8693e-01	4.9824e+00	2.1654e+00
5.9170e-01	4.9710e+00	2.1312e+00
5.9655e-01	4.9589e+00	2.0989e+00
6.0148e-01	4.9462e+00	2.0686e+00
6.0649e-01	4.9330e+00	2.0404e+00
6.1159e-01	4.9195e+00	2.0142e+00
6.1677e-01	4.9058e+00	1.9902e+00
6.2204e-01	4.8921e+00	1.9684e+00
6.2740e-01	4.8786e+00	1.9488e+00
6.3286e-01	4.8653e+00	1.9314e+00
6.3841e-01	4.8526e+00	1.9163e+00
6.4406e-01	4.8405e+00	1.9036e+00
6.4981e-01	4.8295e+00	1.8931e+00
6.5566e-01	4.8196e+00	1.8849e+00
6.6162e-01	4.8113e+00	1.8789e+00
6.6769e-01	4.8047e+00	1.8751e+00
6.7387e-01	4.8003e+00	1.8733e+00
6.8017e-01	4.7983e+00	1.8733e+00
6.8658e-01	4.7992e+00	1.8749e+00
6.9312e-01	4.8032e+00	1.8777e+00
6.9979e-01	4.8106e+00	1.8815e+00
7.0658e-01	4.8218e+00	1.8856e+00
7.1351e-01	4.8369e+00	1.8896e+00
7.2057e-01	4.8561e+00	1.8927e+00
7.2777e-01	4.8793e+00	1.8943e+00
7.3512e-01	4.9064e+00	1.8935e+00
7.4263e-01	4.9372e+00	1.8897e+00
7.5028e-01	4.9710e+00	1.8822e+00
7.5809e-01	5.0073e+00	1.8702e+00
7.6607e-01	5.0453e+00	1.8534e+00
7.7422e-01	5.0840e+00	1.8313e+00
7.8255e-01	5.1225e+00	1.8039e+00
7.9105e-01	5.1597e+00	1.7714e+00
7.9974e-01	5.1948e+00	1.7341e+00
8.0863e-01	5.2270e+00	1.6924e+00
8.1771e-01	5.2556e+00	1.6471e+00
8.2700e-01	5.2802e+00	1.5990e+00
8.3651e-01	5.3004e+00	1.5488e+00
8.4623e-01	5.3163e+00	1.4973e+00
8.5619e-01	5.3279e+00	1.4453e+00
8.6638e-01	5.3353e+00	1.3934e+00
8.7682e-01	5.3389e+00	1.3422e+00
8.8751e-01	5.3390e+00	1.2921e+00
8.9846e-01	5.3360e+00	1.2434e+00
9.0969e-01	5.3304e+00	1.1965e+00
9.2120e-01	5.3224e+00	1.1515e+00
9.3301e-01	5.3124e+00	1.1084e+00
9.4513e-01	5.3008e+00	1.0674e+00
9.5756e-01	5.2879e+00	1.0284e+00
9.7033e-01	5.2739e+00	9.9134e-01
9.8344e-01	5.2591e+00	9.5624e-01
9.9691e-01	5.2437e+00	9.2301e-01
1.0108e+00	5.2279e+00	8.9155e-01
1.0250e+00	5.2117e+00	8.6178e-01
1.0396e+00	5.1954e+00	8.3359e-01
1.0547e+00	5.1791e+00	8.0690e-01
1.0702e+00	5.1627e+00	7.8161e-01
