Material: main / H2O / Kedenburg
Optical constants. S. Kedenburg, M. Vieweg, T. Gissibl, and H. Giessen. Linear refractive index and absorption measurements of nonlinear optical liquids in the visible and near-infrared spectral region, Opt. Mat. Express 2, 1588-1611 (2012)
Comments: Distilled water at 20 °C.
Specs: {"temperature": "20 °C"}
Dispersion formula 2, range 0.5 1.6 um, coefficients 0 0.75831 0.01007 0.08495 8.91377
wavelength (um)	k
0.5	1.89394e-09
0.503	1.95734e-09
0.506	1.90862e-09
0.509	2.23587e-09
0.512	2.46092e-09
0.515	2.46714e-09
0.518	2.52686e-09
0.521	2.62441e-09
0.524	2.48524e-09
0.527	2.48688e-09
0.530	2.69927e-09
0.533	2.93086e-09
0.536	2.84499e-09
0.539	2.80086e-09
0.542	2.87252e-09
0.545	3.36115e-09
0.548	3.46687e-09
0.551	3.66124e-09
0.554	3.67236e-09
0.557	3.7676e-09
0.560	3.91267e-09
0.563	3.90226e-09
0.566	3.8555e-09
0.569	4.22911e-09
0.572	4.38797e-09
0.575	4.75873e-09
0.578	4.96754e-09
0.581	5.64061e-09
0.584	6.08799e-09
0.587	6.77324e-09
0.590	7.69992e-09
0.593	8.58848e-09
0.596	9.72278e-09
0.599	1.14401e-08
0.602	1.3222e-08
0.605	1.401e-08
0.608	1.43698e-08
0.611	1.47324e-08
0.614	1.48536e-08
0.617	1.51226e-08
0.62	1.53441e-08
0.623	1.57158e-08
0.626	1.58911e-08
0.629	1.62676e-08
0.632	1.64961e-08
0.635	1.67765e-08
0.638	1.71604e-08
0.641	1.73431e-08
0.644	1.78343e-08
0.647	1.81748e-08
0.65	1.87246e-08
0.653	1.93826e-08
0.656	2.03069e-08
0.659	2.13437e-08
0.662	2.20204e-08
0.665	2.25964e-08
0.668	2.2911e-08
0.671	2.30139e-08
0.674	2.3224e-08
0.677	2.38123e-08
0.68	2.44048e-08
0.683	2.5056e-08
0.686	2.5712e-08
0.689	2.71403e-08
0.692	2.847e-08
0.695	3.02526e-08
0.698	3.23828e-08
0.701	3.49764e-08
0.704	3.77592e-08
0.707	4.14646e-08
0.71	4.5991e-08
0.713	5.1689e-08
0.716	5.86868e-08
0.719	6.6943e-08
0.722	7.64151e-08
0.725	8.71174e-08
0.728	1.00802e-07
0.731	1.18087e-07
0.734	1.36679e-07
0.737	1.5014e-07
0.74	1.57818e-07
0.743	1.61414e-07
0.746	1.63253e-07
0.749	1.64506e-07
0.752	1.65763e-07
0.755	1.66424e-07
0.758	1.67086e-07
0.761	1.67141e-07
0.764	1.67192e-07
0.767	1.67238e-07
0.77	1.66054e-07
0.773	1.64856e-07
0.776	1.62408e-07
0.779	1.60556e-07
0.782	1.57441e-07
0.785	1.54297e-07
0.788	1.50497e-07
0.791	1.47293e-07
0.794	1.43429e-07
0.797	1.40165e-07
0.8	1.3751e-07
0.803	1.3547e-07
0.806	1.34051e-07
0.809	1.3455e-07
0.812	1.36342e-07
0.815	1.3944e-07
0.818	1.43859e-07
0.821	1.51573e-07
0.824	1.63274e-07
0.827	1.82953e-07
0.83	2.06734e-07
0.833	2.29357e-07
0.836	2.44818e-07
0.839	2.54377e-07
0.842	2.61317e-07
0.845	2.68299e-07
0.848	2.75325e-07
0.851	2.82394e-07
0.854	2.88826e-07
0.857	2.95979e-07
0.86	3.01806e-07
0.863	3.09039e-07
0.866	3.16316e-07
0.869	3.25018e-07
0.872	3.34467e-07
0.875	3.45366e-07
0.878	3.57031e-07
0.881	3.70169e-07
0.884	3.83388e-07
0.887	3.97395e-07
0.89	4.10779e-07
0.893	4.23534e-07
0.896	4.37078e-07
0.899	4.50703e-07
0.902	4.65127e-07
0.905	4.81078e-07
0.908	4.99291e-07
0.911	5.20515e-07
0.914	5.47686e-07
0.917	5.92537e-07
0.92	6.38402e-07
0.923	7.02182e-07
0.926	7.81101e-07
0.929	8.79737e-07
0.932	1.00124e-06
0.935	1.1384e-06
0.938	1.29134e-06
0.941	1.4677e-06
0.944	1.66769e-06
0.947	1.9066e-06
0.95	2.20748e-06
0.953	2.57089e-06
0.956	2.94414e-06
0.959	3.24338e-06
0.962	3.4296e-06
0.965	3.54012e-06
0.968	3.60505e-06
0.971	3.65486e-06
0.974	3.6894e-06
0.977	3.70077e-06
0.98	3.68873e-06
0.983	3.65309e-06
0.986	3.60147e-06
0.989	3.53373e-06
0.992	3.45761e-06
0.995	3.36513e-06
0.998	3.26409e-06
1.001	3.15442e-06
1.004	3.04403e-06
1.007	2.92491e-06
1.01	2.79699e-06
1.013	2.66826e-06
1.016	2.53871e-06
1.019	2.40836e-06
1.022	2.28532e-06
1.025	2.16152e-06
1.028	2.03696e-06
1.031	1.92804e-06
1.034	1.81846e-06
1.037	1.72471e-06
1.04	1.63038e-06
1.043	1.55209e-06
1.046	1.48164e-06
1.049	1.41076e-06
1.052	1.34782e-06
1.055	1.30129e-06
1.058	1.26289e-06
1.061	1.24115e-06
1.064	1.21925e-06
1.067	1.2142e-06
1.07	1.2091e-06
1.073	1.21249e-06
1.076	1.23301e-06
1.079	1.25362e-06
1.082	1.29154e-06
1.085	1.33829e-06
1.088	1.38528e-06
1.091	1.44988e-06
1.094	1.5148e-06
1.097	1.5888e-06
1.1	1.67192e-06
1.103	1.75548e-06
1.106	1.83947e-06
1.109	1.92388e-06
1.112	2.01758e-06
1.115	2.11175e-06
1.118	2.22419e-06
1.121	2.34613e-06
1.124	2.5313e-06
1.127	2.77123e-06
1.13	3.11132e-06
1.133	3.58842e-06
1.136	4.39344e-06
1.139	5.26611e-06
1.142	6.25237e-06
1.145	7.28018e-06
1.148	8.25849e-06
1.15	8.64808e-06
1.15375	9.45669e-06
1.1575	1.00401e-05
1.16125	1.04423e-05
1.165	1.06614e-05
1.16875	1.08817e-05
1.1725	1.10099e-05
1.17625	1.12324e-05
1.18	1.13621e-05
1.18375	1.14924e-05
1.1875	1.16233e-05
1.19125	1.18496e-05
1.195	1.1982e-05
1.19875	1.20196e-05
1.2025	1.19615e-05
1.20625	1.19988e-05
1.21	1.19398e-05
1.21375	1.18802e-05
1.2175	1.182e-05
1.22125	1.17593e-05
1.225	1.16979e-05
1.22875	1.16359e-05
1.2325	1.15733e-05
1.23625	1.14118e-05
1.24	1.13477e-05
1.24375	1.12831e-05
1.2475	1.11186e-05
1.25125	1.10524e-05
1.255	1.09857e-05
1.25875	1.09183e-05
1.2625	1.08504e-05
1.26625	1.08826e-05
1.27	1.09148e-05
1.27375	1.10484e-05
1.2775	1.11826e-05
1.28125	1.14194e-05
1.285	1.16573e-05
1.28875	1.1999e-05
1.2925	1.2651e-05
1.29625	1.31003e-05
1.3	1.37589e-05
1.30375	1.44211e-05
1.3075	1.5295e-05
1.31125	1.6278e-05
1.315	1.7371e-05
1.31875	1.86798e-05
1.3225	2.01011e-05
1.32625	2.16356e-05
1.33	2.33902e-05
1.33375	2.54727e-05
1.3375	2.73538e-05
1.34125	2.92449e-05
1.345	3.10392e-05
1.34875	3.2843e-05
1.3525	3.45488e-05
1.35625	3.62635e-05
1.36	3.78789e-05
1.36375	4.00453e-05
1.3675	4.26583e-05
1.37125	4.68127e-05
1.375	5.17552e-05
1.37875	5.86988e-05
1.3825	6.942e-05
1.38625	8.37285e-05
1.39	0.000101764
1.39375	0.000127548
1.3975	0.000153469
1.40125	0.000180643
1.405	0.000206842
1.40875	0.000229815
1.4125	0.000249535
1.41625	0.000265976
1.42	0.00028024
1.42375	0.000290044
1.4275	0.00029876
1.43125	0.000305239
1.435	0.000310607
1.43875	0.000314853
1.4425	0.00031797
1.44625	0.000319947
1.45	0.000320777
1.45375	0.000321606
1.4575	0.000321276
1.46125	0.000322103
1.465	0.000320598
1.46875	0.000317912
1.4725	0.000315208
1.47625	0.000308963
1.48	0.000303859
1.48375	0.000296363
1.4875	0.000287643
1.49125	0.000278874
1.495	0.000270058
1.49875	0.000260001
1.5025	0.000251087
1.50625	0.000240926
1.51	0.000231913
1.51375	0.000221647
1.5175	0.000212536
1.52125	0.000204587
1.525	0.000195383
1.52875	0.000187347
1.5325	0.00018049
1.53625	0.000172374
1.54	0.000166667
1.54375	0.000159702
1.5475	0.000152701
1.55125	0.000146899
1.555	0.000142304
1.55875	0.000136446
1.5625	0.000129313
1.56625	0.000124638
1.57	0.000121064
1.57375	0.000115842
1.5775	0.000112729
1.58125	0.000109851
1.585	0.000107085
1.58875	0.000104557
1.5925	0.000102142
1.59625	0.000100096
1.6	9.79121e-05
1.60375	9.5972e-05
1.6075	9.42776e-05
1.61125	9.25743e-05
1.615	9.1119e-05
1.61875	8.95271e-05
1.6225	8.83143e-05
1.62625	8.69654e-05
1.63	8.58689e-05
1.63375	8.47663e-05
1.6375	8.37881e-05
1.64125	8.29351e-05
1.645	8.19465e-05
1.64875	8.13461e-05
1.6525	8.06106e-05
1.65625	8.01345e-05
1.66	7.95234e-05
1.66375	7.94382e-05
1.6675	7.92192e-05
1.67125	7.88654e-05
1.675	7.86424e-05
1.67875	7.85513e-05
1.6825	7.83251e-05
1.68625	7.80971e-05
1.69	7.80018e-05
1.69375	7.79053e-05
1.6975	7.9969e-05
1.70125	8.00103e-05
1.705	8.05937e-05
1.70875	8.10429e-05
1.7125	8.1357e-05
1.71625	8.22181e-05
1.72	8.23977e-05
1.72375	8.34004e-05
1.7275	8.37193e-05
1.73125	8.45899e-05
1.735	8.50492e-05
1.73875	8.56481e-05
1.7425	8.55555e-05
1.74625	8.50448e-05
1.75	8.43919e-05
