Material: main / H2O / Segelstein
Optical constants. D. J. Segelstein. The complex refractive index of water, Master Thesis (1981)Note: This is a continuation of work of Hale and Querry (1973) providing improved data and extended range.
Comments: Liquid water (H2O) at 25 Â°C (from Hale and Querry 1973)
Specs: {"n_absolute": true, "wavelength_vacuum": true, "temperature": "25 Â°C"}
wavelength (um)	n	k
3.3962528E-02	0.842171	9.0738197E-02
4.1975898E-02	0.802291	1.7980019E-01
5.0003453E-02	0.820742	2.9977136E-01
5.7942869E-02	0.831628	3.7392986E-01
6.6069347E-02	0.903527	5.3553782E-01
7.3960525E-02	1.049744	5.8048385E-01
8.2035154E-02	1.140628	6.2920207E-01
8.9949760E-02	1.302663	6.5281503E-01
9.7948997E-02	1.455868	5.7516194E-01
1.0592537E-01	1.516305	4.7074980E-01
1.1402498E-01	1.543211	3.9883214E-01
1.2189896E-01	1.570304	3.4897165E-01
1.3001696E-01	1.633849	2.3921596E-01
1.3803843E-01	1.496271	1.4216417E-01
1.4588143E-01	1.469275	2.4087412E-01
1.5417005E-01	1.596861	2.5810127E-01
1.6218101E-01	1.652917	1.3514194E-01
1.6982436E-01	1.605555	3.9975154E-03
1.7988709E-01	1.513343	5.9950132E-05
1.9998619E-01	1.451724	1.1010072E-07
2.1978599E-01	1.421603	1.2699603E-08
2.3988329E-01	1.402321	1.0490354E-08
2.6001596E-01	1.388881	7.9944786E-09
2.7989813E-01	1.379072	5.7914878E-09
2.9991625E-01	1.371437	4.1475358E-09
3.1988951E-01	1.365376	3.1899960E-09
3.3962528E-01	1.360441	2.7656049E-09
3.5974933E-01	1.356295	2.3162751E-09
3.8018940E-01	1.352740	1.9399482E-09
3.9994474E-01	1.349793	1.5804841E-09
4.1975898E-01	1.347219	1.2583172E-09
4.3954162E-01	1.344956	9.3926933E-10
4.6025657E-01	1.342858	7.5995897E-10
4.7973344E-01	1.341093	7.0923497E-10
5.0003453E-01	1.339430	9.2425146E-10
5.1999600E-01	1.337944	1.5696042E-09
5.3951063E-01	1.336615	2.0979259E-09
5.5975759E-01	1.335344	2.8693937E-09
5.7942869E-01	1.334200	4.4339434E-09
5.9979108E-01	1.333100	9.6336340E-09
6.1944106E-01	1.332106	1.3989112E-08
6.3973485E-01	1.331144	1.5696042E-08
6.6069347E-01	1.330238	1.9399482E-08
6.8076935E-01	1.329452	2.3003300E-08
6.9984198E-01	1.328769	3.3480362E-08
7.1944899E-01	1.328120	7.2910511E-08
7.3960525E-01	1.327502	1.4581095E-07
7.6032630E-01	1.326909	1.5804841E-07
7.7983010E-01	1.326382	1.4086080E-07
7.9983427E-01	1.325874	1.2496550E-07
8.2035154E-01	1.325379	1.6210266E-07
8.3945999E-01	1.324937	2.4591790E-07
8.5901354E-01	1.324502	3.3480362E-07
8.7902251E-01	1.324074	4.0531264E-07
8.9949760E-01	1.323648	4.8617222E-07
9.2044959E-01	1.323222	8.3040536E-07
9.3972333E-01	1.322842	2.1691528E-06
9.5940066E-01	1.322462	3.3580731E-06
9.7948997E-01	1.322080	3.4181423E-06
1.0000000E+00	1.321695	2.9997851E-06
1.0399202E+00	1.320952	1.6900134E-06
1.0789467E+00	1.320233	1.3285874E-06
1.1194379E+00	1.319488	2.6283920E-06
1.1587774E+00	1.318763	1.0688829E-05
1.1994993E+00	1.318008	1.1994997E-05
1.2387966E+00	1.317263	1.1388857E-05
1.2793813E+00	1.316470	1.1394365E-05
1.3212956E+00	1.315618	1.9120099E-05
1.3614447E+00	1.314760	4.5049517E-05
1.3995873E+00	1.313871	1.5303478E-04
1.4387986E+00	1.313220	3.6290265E-04
1.4791084E+00	1.312525	3.0184928E-04
1.5205475E+00	1.311604	1.7409654E-04
1.5595525E+00	1.310659	1.2396245E-04
1.5995580E+00	1.309642	9.3473853E-05
1.6405898E+00	1.308548	7.9029665E-05
1.6788040E+00	1.307435	7.4953194E-05
1.7218686E+00	1.306070	8.4098867E-05
1.7619760E+00	1.304727	1.0512116E-04
1.7988709E+00	1.303418	1.3592212E-04
1.8407720E+00	1.301709	1.5516371E-04
1.8793168E+00	1.299860	7.2242064E-04
1.9186687E+00	1.298793	1.8272171E-03
1.9588447E+00	1.298308	1.7170785E-03
1.9998619E+00	1.296913	1.1010072E-03
2.0417379E+00	1.294919	7.3924797E-04
2.0796967E+00	1.292966	5.2940757E-04
2.1183611E+00	1.290795	4.1762851E-04
2.1577444E+00	1.288418	3.5874854E-04
2.1978599E+00	1.285790	3.3790152E-04
2.2387211E+00	1.282852	3.5710024E-04
2.2803421E+00	1.279561	4.2932892E-04
2.3173946E+00	1.276305	5.1143464E-04
2.3604782E+00	1.272062	6.8515707E-04
2.3988329E+00	1.267787	9.0947370E-04
2.4378108E+00	1.262824	1.2496550E-03
2.4774221E+00	1.257102	1.7091892E-03
2.5176769E+00	1.250383	1.9897117E-03
2.5644840E+00	1.240167	2.2687683E-03
2.5882129E+00	1.233679	2.4254378E-03
2.6181830E+00	1.223082	2.9770775E-03
2.6485001E+00	1.209954	4.8282544E-03
2.6730064E+00	1.195340	8.5465363E-03
2.7039584E+00	1.174582	1.6397972E-02
2.7289778E+00	1.149520	3.8000573E-02
2.7605778E+00	1.131711	7.4437220E-02
2.7925438E+00	1.127558	1.1188971E-01
2.8248800E+00	1.125351	1.5409557E-01
2.8575905E+00	1.145545	2.0596344E-01
2.8906799E+00	1.185419	2.4933896E-01
2.9241524E+00	1.240033	2.7592442E-01
2.9580124E+00	1.297762	2.8170214E-01
2.9991625E+00	1.352917	2.7213860E-01
3.1988951E+00	1.461522	9.2425146E-02
3.3962528E+00	1.404875	1.9489026E-02
3.5974933E+00	1.368863	5.1497974E-03
3.8018940E+00	1.347393	3.4024374E-03
3.9994474E+00	1.333929	4.6003423E-03
4.1975898E+00	1.323997	6.8831961E-03
4.3954162E+00	1.316398	1.0298833E-02
4.6025657E+00	1.311785	1.4716012E-02
4.7973344E+00	1.310657	1.4989603E-02
5.0003453E+00	1.305885	1.2410525E-02
5.1999600E+00	1.297550	1.0110908E-02
5.3951063E+00	1.285729	1.0298883E-02
5.5975759E+00	1.268802	1.4183720E-02
5.7942869E+00	1.242239	3.2945048E-02
5.9979108E+00	1.242862	1.0685384E-01
6.1944106E+00	1.341605	8.7859786E-02
6.3973485E+00	1.325038	4.4852860E-02
6.6069347E+00	1.311404	3.5627893E-02
6.8076935E+00	1.301901	3.2783256E-02
6.9984198E+00	1.295193	3.1973497E-02
7.1944899E+00	1.289296	3.2047204E-02
7.3960525E+00	1.283912	3.2418293E-02
7.6032630E+00	1.278508	3.2793679E-02
7.7983010E+00	1.273363	3.3480362E-02
7.9983427E+00	1.268163	3.4260220E-02
8.2035154E+00	1.262564	3.5139060E-02
8.3945999E+00	1.257072	3.6040445E-02
8.5901354E+00	1.251193	3.7135574E-02
8.7902251E+00	1.244791	3.8440599E-02
8.9949760E+00	1.237862	3.9883214E-02
9.2044959E+00	1.230259	4.1475358E-02
9.3972333E+00	1.222699	4.3330145E-02
9.5940066E+00	1.214136	4.5372232E-02
9.7948997E+00	1.204471	4.7839887E-02
1.0000000E+01	1.193164	5.0791395E-02
1.0209395E+01	1.180893	5.8048385E-02
1.0399202E+01	1.167354	6.1914183E-02
1.0592537E+01	1.153843	7.0923497E-02
1.0789467E+01	1.140345	8.2944987E-02
1.0990058E+01	1.128640	9.6781009E-02
1.1194379E+01	1.116059	1.1292501E-01
1.1402498E+01	1.105361	1.3206573E-01
1.1587774E+01	1.096584	1.5198130E-01
1.1803206E+01	1.090622	1.7409654E-01
1.1994993E+01	1.087480	1.9897117E-01
1.2189896E+01	1.087212	2.2376396E-01
1.2387966E+01	1.092375	2.4762252E-01
1.2589254E+01	1.100816	2.6902345E-01
1.2793813E+01	1.110319	2.8826382E-01
1.3001696E+01	1.122067	3.0604842E-01
1.3212956E+01	1.133825	3.2269344E-01
1.3396767E+01	1.145850	3.3634900E-01
1.3614447E+01	1.160150	3.4897165E-01
1.3803843E+01	1.172049	3.5957554E-01
1.3995873E+01	1.184740	3.6964952E-01
1.4190575E+01	1.197623	3.7738979E-01
1.4387986E+01	1.209428	3.8440599E-01
1.4588143E+01	1.220973	3.9155263E-01
1.4791084E+01	1.233597	3.9699967E-01
1.4996848E+01	1.245318	4.0252248E-01
1.5205475E+01	1.256977	4.0718347E-01
1.5417005E+01	1.268440	4.1189844E-01
1.5595525E+01	1.278233	4.1570969E-01
1.5812480E+01	1.290576	4.1955620E-01
1.5995580E+01	1.301310	4.2246442E-01
1.6218101E+01	1.313112	4.2539281E-01
1.6405898E+01	1.322675	4.2637344E-01
1.6595869E+01	1.333056	4.2834149E-01
1.6788040E+01	1.342949	4.2932892E-01
1.6982436E+01	1.352834	4.2932892E-01
1.7218686E+01	1.364655	4.3031862E-01
1.7418069E+01	1.374519	4.2932892E-01
1.7619760E+01	1.383660	4.2834149E-01
1.7782794E+01	1.390838	4.2637344E-01
1.7988709E+01	1.399826	4.2539281E-01
1.8197009E+01	1.408657	4.2441443E-01
1.8407720E+01	1.417548	4.2343831E-01
1.8620871E+01	1.426178	4.2052338E-01
1.8793168E+01	1.432797	4.1762851E-01
1.9010783E+01	1.441618	4.1379967E-01
1.9186687E+01	1.446666	4.1000594E-01
1.9408859E+01	1.453825	4.0718347E-01
1.9588447E+01	1.458719	4.0252248E-01
1.9815270E+01	1.465400	3.9883214E-01
1.9998619E+01	1.467642	3.9335995E-01
2.3988329E+01	1.529309	3.4816903E-01
2.7989813E+01	1.546272	2.9908191E-01
3.1988951E+01	1.519076	2.7976291E-01
3.5974933E+01	1.492960	2.9908191E-01
3.9994474E+01	1.476571	3.4418358E-01
4.3954162E+01	1.485266	4.0252248E-01
4.7973344E+01	1.520272	4.5792056E-01
5.3951063E+01	1.594131	5.0791395E-01
6.1944106E+01	1.690223	5.2455393E-01
6.9984198E+01	1.762824	5.1735678E-01
7.7983010E+01	1.819110	5.0209991E-01
8.5901354E+01	1.859854	4.7729858E-01
9.3972333E+01	1.886330	4.5476826E-01
1.0990058E+02	1.907505	4.1762851E-01
1.4996848E+02	1.934154	4.2637344E-01
1.9010783E+02	1.965156	4.6109471E-01
2.3014418E+02	2.001418	4.9635242E-01
2.6977394E+02	2.037243	5.2818996E-01
3.1988951E+02	2.073976	5.6596574E-01
3.9994474E+02	2.125742	6.2920207E-01
4.7973344E+02	2.177335	6.8515707E-01
5.5975759E+02	2.220374	7.3585144E-01
6.9984198E+02	2.270109	8.3136195E-01
8.9949760E+02	2.363856	9.8353573E-01
1.2000518E+03	2.481153	1.1912150E+00
1.5999264E+03	2.679108	1.4517443E+00
1.9998619E+03	2.881863	1.6702833E+00
2.3999379E+03	3.084049	1.8534896E+00
2.8002706E+03	3.279470	2.0090472E+00
3.1996318E+03	3.468221	2.1423486E+00
3.5999792E+03	3.650102	2.2547072E+00
4.0003685E+03	3.829496	2.3598812E+00
4.4004795E+03	4.003601	2.4450635E+00
4.7995442E+03	4.166540	2.5176198E+00
5.1999600E+03	4.328263	2.5810127E+00
5.6001543E+03	4.482558	2.6362716E+00
6.0006735E+03	4.631138	2.6852835E+00
6.4002949E+03	4.776470	2.7226395E+00
6.7998605E+03	4.915201	2.7497306E+00
7.1994614E+03	5.047771	2.7802903E+00
7.5997619E+03	5.177179	2.7963411E+00
8.0000000E+03	5.304929	2.8111249E+00
8.4000140E+03	5.428878	2.8253363E+00
8.7999461E+03	5.548489	2.8331537E+00
9.2000459E+03	5.663535	2.8351768E+00
9.5999730E+03	5.773802	2.8317841E+00
1.0000000E+04	5.879378	2.8300242E+00
1.3999096E+04	6.711149	2.6846653E+00
1.8001140E+04	7.252419	2.4608783E+00
2.1998851E+04	7.625553	2.2242835E+00
2.6001596E+04	7.889643	2.0108985E+00
2.9998532E+04	8.074469	1.8238543E+00
3.4001651E+04	8.209818	1.6629919E+00
3.8001435E+04	8.311297	1.5250713E+00
4.1995234E+04	8.389151	1.4047212E+00
4.6004466E+04	8.449912	1.3022373E+00
5.0003453E+04	8.497290	1.2119652E+00
5.4000777E+04	8.535947	1.1328963E+00
5.7996261E+04	8.571605	1.0628945E+00
6.2001185E+04	8.601342	1.0011292E+00
6.5993324E+04	8.626323	9.4556229E-01
7.0000315E+04	8.647693	8.9596314E-01
7.3994593E+04	8.666029	8.5092277E-01
7.8000972E+04	8.681999	8.1038267E-01
8.1997384E+04	8.695941	7.7326819E-01
8.6000303E+04	8.708553	7.3940119E-01
8.9991189E+04	8.719808	7.0833083E-01
9.3993973E+04	8.729884	6.7975145E-01
9.7994119E+04	8.738919	6.5335639E-01
1.1994993E+05	8.776133	5.3800975E-01
1.5995580E+05	8.809677	4.0727724E-01
1.9998619E+05	8.823834	3.2771034E-01
2.3988329E+05	8.831656	2.7408808E-01
2.7989813E+05	8.836475	2.3560806E-01
3.1988951E+05	8.839434	2.0643824E-01
3.5974933E+05	8.841394	1.8398827E-01
3.9994474E+05	8.842801	1.6587852E-01
4.3954162E+05	8.843823	1.5093506E-01
4.7973344E+05	8.844609	1.3860859E-01
5.1999600E+05	8.845220	1.2817111E-01
5.5975759E+05	8.845696	1.1906665E-01
5.9979108E+05	8.846082	1.1137562E-01
6.3973485E+05	8.846396	1.0442155E-01
6.8076935E+05	8.846662	9.8580302E-02
7.1944899E+05	8.846871	9.2851761E-02
7.6032630E+05	8.847058	8.8265329E-02
7.9983427E+05	8.847212	8.3905445E-02
8.3945999E+05	8.847344	7.9760918E-02
8.7902251E+05	8.847459	7.6171085E-02
9.2044959E+05	8.847563	7.3078587E-02
9.5940066E+05	8.847648	6.9950391E-02
1.0000000E+06	8.847727	6.7265154E-02
1.3995873E+06	8.848183	4.8282544E-02
1.7988709E+06	8.848364	3.7652181E-02
2.1978599E+06	8.848452	3.0888025E-02
2.6001596E+06	8.848501	2.6229508E-02
2.9991625E+06	8.848531	2.2739983E-02
3.3962528E+06	8.848550	2.0081222E-02
3.8018940E+06	8.848563	1.8021467E-02
4.1975898E+06	8.848572	1.6322630E-02
4.6025657E+06	8.848579	1.4920732E-02
5.0003453E+06	8.848584	1.3733782E-02
5.3951063E+06	8.848587	1.2728879E-02
5.7942869E+06	8.848590	1.1851959E-02
6.1944106E+06	8.848592	1.1111947E-02
6.6069347E+06	8.848594	1.0442155E-02
6.9984198E+06	8.848595	9.8580302E-03
7.3960525E+06	8.848596	9.3280345E-03
7.7983010E+06	8.848597	8.8468801E-03
8.2035154E+06	8.848598	8.4292735E-03
8.5901354E+06	8.848599	8.0313794E-03
8.9949760E+06	8.848599	7.6875888E-03
9.3972333E+06	8.848600	7.3585144E-03
9.7948997E+06	8.848600	7.0597634E-03
