Material: main / H2O / Wang
Optical constants. K. Wang, W. Wen, Y. Wang, K. Wang, J. He, J. Wang, P. Zhai, Y. Yang, P. Qiu. Order-of-magnitude multiphoton signal enhancement based on characterization of absorption spectra of immersion oils at the 1700-nm window, Opt. Express 25, 5909-5916 (2017)
Comments: 22 °C.
Specs: {"temperature": "22 °C"}
wavelength (um)	k
1.200	1.21924E-05
1.202	1.21663E-05
1.204	1.25064E-05
1.206	1.28335E-05
1.208	1.22760E-05
1.210	1.23787E-05
1.212	1.22992E-05
1.214	1.21647E-05
1.216	1.20517E-05
1.218	1.15447E-05
1.220	1.17018E-05
1.222	1.18298E-05
1.224	1.22016E-05
1.226	1.12860E-05
1.228	1.13108E-05
1.230	1.15989E-05
1.232	1.07309E-05
1.234	1.09204E-05
1.236	1.16507E-05
1.238	1.11858E-05
1.240	1.14838E-05
1.242	1.15381E-05
1.244	1.18978E-05
1.246	1.09710E-05
1.248	1.07151E-05
1.250	1.11683E-05
1.252	1.07609E-05
1.254	1.09406E-05
1.256	1.07772E-05
1.258	1.10109E-05
1.260	1.05081E-05
1.262	1.13086E-05
1.264	1.07582E-05
1.266	1.06691E-05
1.268	1.05217E-05
1.270	1.10361E-05
1.272	1.06589E-05
1.274	1.06816E-05
1.276	1.12310E-05
1.278	1.09577E-05
1.280	1.13793E-05
1.282	1.14785E-05
1.284	1.13561E-05
1.286	1.14487E-05
1.288	1.20228E-05
1.290	1.19688E-05
1.292	1.25497E-05
1.294	1.27977E-05
1.296	1.35316E-05
1.298	1.33640E-05
1.300	1.36126E-05
1.302	1.37749E-05
1.304	1.44898E-05
1.306	1.50539E-05
1.308	1.53295E-05
1.310	1.60327E-05
1.312	1.60667E-05
1.314	1.65116E-05
1.316	1.82428E-05
1.318	1.79160E-05
1.320	1.88822E-05
1.322	1.91306E-05
1.324	2.00017E-05
1.326	2.16320E-05
1.328	2.23502E-05
1.330	2.30759E-05
1.332	2.44320E-05
1.334	2.46311E-05
1.336	2.63773E-05
1.338	2.74325E-05
1.340	2.81794E-05
1.342	2.92682E-05
1.344	3.02441E-05
1.346	3.14510E-05
1.348	3.23401E-05
1.350	3.34235E-05
1.352	3.44445E-05
1.354	3.51725E-05
1.356	3.60168E-05
1.358	3.67586E-05
1.360	3.81647E-05
1.362	3.86816E-05
1.364	4.02701E-05
1.366	4.17917E-05
1.368	4.32852E-05
1.370	4.47381E-05
1.372	4.71980E-05
1.374	4.97142E-05
1.376	5.21233E-05
1.378	5.75168E-05
1.380	6.23885E-05
1.382	6.73228E-05
1.384	7.35943E-05
1.386	8.10402E-05
1.388	9.02730E-05
1.390	1.01995E-04
1.392	1.14573E-04
1.394	1.28072E-04
1.396	1.41453E-04
1.398	1.56720E-04
1.400	1.70012E-04
1.402	1.85305E-04
1.404	2.02078E-04
1.406	2.14992E-04
1.408	2.28625E-04
1.410	2.41357E-04
1.412	2.54991E-04
1.414	2.66209E-04
1.416	2.77139E-04
1.418	2.86898E-04
1.420	2.91516E-04
1.422	3.00935E-04
1.424	3.10140E-04
1.426	3.19174E-04
1.428	3.30040E-04
1.430	3.31655E-04
1.432	3.32807E-04
1.434	3.41010E-04
1.436	3.44039E-04
1.438	3.44249E-04
1.440	3.47272E-04
1.442	3.57213E-04
1.444	3.61466E-04
1.446	3.64403E-04
1.448	3.63558E-04
1.450	3.61322E-04
1.452	3.69034E-04
1.454	3.71926E-04
1.456	3.67193E-04
1.458	3.72474E-04
1.460	3.71618E-04
1.462	3.66320E-04
1.464	3.62058E-04
1.466	3.60501E-04
1.468	3.55589E-04
1.470	3.54515E-04
1.472	3.51400E-04
1.474	3.44590E-04
1.476	3.37082E-04
1.478	3.30562E-04
1.480	3.24904E-04
1.482	3.16168E-04
1.484	3.12369E-04
1.486	3.03580E-04
1.488	2.98928E-04
1.490	2.93926E-04
1.492	2.82925E-04
1.494	2.78063E-04
1.496	2.74047E-04
1.498	2.67486E-04
1.500	2.59105E-04
1.502	2.51952E-04
1.504	2.45992E-04
1.506	2.43284E-04
1.508	2.38540E-04
1.510	2.31318E-04
1.512	2.25952E-04
1.514	2.20600E-04
1.516	2.16635E-04
1.518	2.11979E-04
1.520	2.05786E-04
1.522	1.98992E-04
1.524	1.94322E-04
1.526	1.91932E-04
1.528	1.86741E-04
1.530	1.81789E-04
1.532	1.79322E-04
1.534	1.76010E-04
1.536	1.71114E-04
1.538	1.67206E-04
1.540	1.62721E-04
1.542	1.59149E-04
1.544	1.55225E-04
1.546	1.52383E-04
1.548	1.49562E-04
1.550	1.45780E-04
1.552	1.43886E-04
1.554	1.41328E-04
1.556	1.38233E-04
1.558	1.35711E-04
1.560	1.32229E-04
1.562	1.30122E-04
1.564	1.27127E-04
1.566	1.25871E-04
1.568	1.23353E-04
1.570	1.21088E-04
1.572	1.19509E-04
1.574	1.17551E-04
1.576	1.15445E-04
1.578	1.13418E-04
1.580	1.11966E-04
1.582	1.10594E-04
1.584	1.07811E-04
1.586	1.06685E-04
1.588	1.05416E-04
1.590	1.04000E-04
1.592	1.02891E-04
1.594	1.01891E-04
1.596	1.00048E-04
1.598	9.88101E-05
1.600	9.80207E-05
1.602	9.69786E-05
1.604	9.62641E-05
1.606	9.46794E-05
1.608	9.34756E-05
1.610	9.29208E-05
1.612	9.20636E-05
1.614	9.08216E-05
1.616	9.04499E-05
1.618	8.98216E-05
1.620	8.88768E-05
1.622	8.80843E-05
1.624	8.71449E-05
1.626	8.66138E-05
1.628	8.57765E-05
1.630	8.59000E-05
1.632	8.45989E-05
1.634	8.45047E-05
1.636	8.32088E-05
1.638	8.31316E-05
1.640	8.25590E-05
1.642	8.20119E-05
1.644	8.19622E-05
1.646	8.16601E-05
1.648	8.08739E-05
1.650	8.01967E-05
1.652	8.03188E-05
1.654	7.99322E-05
1.656	7.98328E-05
1.658	7.94724E-05
1.660	8.00115E-05
1.662	7.94564E-05
1.664	7.88267E-05
1.666	7.85061E-05
1.668	7.86910E-05
1.670	7.85197E-05
1.672	7.78730E-05
1.674	7.80966E-05
1.676	7.79004E-05
1.678	7.73871E-05
1.680	7.83567E-05
1.682	7.78577E-05
1.684	7.70886E-05
1.686	7.79900E-05
1.688	7.86094E-05
1.690	7.70625E-05
1.692	7.77260E-05
1.694	7.82735E-05
1.696	7.88410E-05
1.698	7.88406E-05
1.700	7.83606E-05
1.702	7.90865E-05
1.704	7.87121E-05
1.706	7.86996E-05
1.708	7.99756E-05
1.710	8.08066E-05
1.712	8.09157E-05
1.714	8.12256E-05
1.716	8.20762E-05
1.718	8.33365E-05
1.720	8.41371E-05
1.722	8.47093E-05
1.724	8.48032E-05
1.726	8.58774E-05
1.728	8.72661E-05
1.730	8.72223E-05
1.732	8.88429E-05
1.734	8.92077E-05
1.736	9.07556E-05
1.738	9.25196E-05
1.740	9.34493E-05
1.742	9.46192E-05
1.744	9.73802E-05
1.746	9.85659E-05
1.748	9.89007E-05
1.750	1.01252E-04
1.752	1.03506E-04
1.754	1.04656E-04
1.756	1.05333E-04
1.758	1.07654E-04
1.760	1.10719E-04
1.762	1.10619E-04
1.764	1.13707E-04
1.766	1.15451E-04
1.768	1.15280E-04
1.770	1.17095E-04
1.772	1.20548E-04
1.774	1.20391E-04
1.776	1.23456E-04
1.778	1.22699E-04
1.780	1.23916E-04
1.782	1.24896E-04
1.784	1.26576E-04
1.786	1.27188E-04
1.788	1.28213E-04
1.790	1.27402E-04
1.792	1.27820E-04
1.794	1.30255E-04
1.796	1.27915E-04
1.798	1.27893E-04
1.800	1.29881E-04
1.802	1.33613E-04
1.804	1.33010E-04
1.806	1.31165E-04
1.808	1.31724E-04
1.810	1.33566E-04
1.812	1.32431E-04
1.814	1.32048E-04
1.816	1.33593E-04
1.818	1.35481E-04
1.820	1.35403E-04
1.822	1.33617E-04
1.824	1.33498E-04
1.826	1.34024E-04
1.828	1.33866E-04
1.830	1.35613E-04
1.832	1.38394E-04
1.834	1.38927E-04
1.836	1.39231E-04
1.838	1.42062E-04
1.840	1.47427E-04
1.842	1.51115E-04
1.844	1.51510E-04
1.846	1.52212E-04
1.848	1.51146E-04
1.850	1.53159E-04
1.852	1.61307E-04
1.854	1.70128E-04
1.856	1.80050E-04
1.858	1.89529E-04
1.860	1.98641E-04
1.862	2.08470E-04
1.864	2.20066E-04
1.866	2.34872E-04
1.868	2.54649E-04
1.870	2.79024E-04
1.872	3.06452E-04
1.874	3.35420E-04
1.876	3.70778E-04
1.878	4.16729E-04
1.880	4.67984E-04
1.882	5.18876E-04
1.884	5.76387E-04
1.886	6.52516E-04
1.888	7.38594E-04
1.890	8.24970E-04
1.892	9.14207E-04
1.894	1.01459E-03
1.896	1.11878E-03
1.898	1.21264E-03
1.900	1.28449E-03
