Material: main / H2O / Warren-2008
Optical constants. S. G. Warren, and R. E. Brandt. Optical constants of ice from the ultraviolet to the microwave: A revised compilation, J. Geophys. Res. 113, D14220 (2008)Optical constants available online at https://atmos.washington.edu/ice_optical_constants/
Comments: Water ice (solid H2O) at -7 °C
Specs: {"temperature": "-7 °C"}
wavelength (um)	n	k
4.430E-002	0.8228	1.640E-001
4.590E-002	0.8255	1.830E-001
4.770E-002	0.8263	2.080E-001
4.960E-002	0.8347	2.400E-001
5.170E-002	0.8483	2.590E-001
5.390E-002	0.8497	2.790E-001
5.640E-002	0.8519	3.190E-001
5.900E-002	0.8647	3.660E-001
6.200E-002	0.8970	4.160E-001
6.530E-002	0.9400	4.640E-001
6.890E-002	1.0093	5.170E-001
7.290E-002	1.0986	5.330E-001
7.510E-002	1.1449	5.310E-001
8.000E-002	1.2273	5.100E-001
8.550E-002	1.3117	4.990E-001
9.180E-002	1.4091	3.800E-001
9.540E-002	1.3948	3.390E-001
1.033E-001	1.4047	2.910E-001
1.100E-001	1.3886	2.440E-001
1.140E-001	1.3772	2.390E-001
1.210E-001	1.3929	2.470E-001
1.272E-001	1.3999	1.950E-001
1.305E-001	1.3607	1.720E-001
1.333E-001	1.3210	1.940E-001
1.362E-001	1.2871	2.430E-001
1.378E-001	1.2851	2.890E-001
1.393E-001	1.3151	3.440E-001
1.425E-001	1.4130	4.010E-001
1.442E-001	1.4845	4.050E-001
1.459E-001	1.5484	3.770E-001
1.476E-001	1.5915	3.320E-001
1.485E-001	1.6077	2.980E-001
1.512E-001	1.6220	2.280E-001
1.540E-001	1.6345	1.720E-001
1.569E-001	1.6353	1.100E-001
1.589E-001	1.6214	5.800E-002
1.630E-001	1.5482	8.473E-003
1.670E-001	1.5027	1.256E-003
1.710E-001	1.4743	1.862E-004
1.750E-001	1.4543	2.757E-005
1.790E-001	1.4390	4.081E-006
1.830E-001	1.4268	5.403E-007
1.870E-001	1.4167	6.218E-008
1.910E-001	1.4081	7.181E-009
1.950E-001	1.4007	8.289E-010
1.990E-001	1.3943	9.565E-011
2.019E-001	1.3901	2.0E-011
2.500E-001	1.3509	2.0E-011
3.500E-001	1.3249	2.0E-011
4.000E-001	1.3194	2.365E-011
4.200E-001	1.3177	3.135E-011
4.400E-001	1.3163	6.268E-011
4.600E-001	1.3151	1.325E-010
4.800E-001	1.3140	2.861E-010
5.000E-001	1.3130	5.889E-010
5.200E-001	1.3121	1.076E-009
5.400E-001	1.3114	1.813E-009
5.600E-001	1.3106	2.839E-009
5.800E-001	1.3100	4.159E-009
6.000E-001	1.3094	5.730E-009
6.200E-001	1.3088	8.580E-009
6.400E-001	1.3083	1.220E-008
6.600E-001	1.3078	1.660E-008
6.800E-001	1.3073	2.090E-008
7.000E-001	1.3069	2.900E-008
7.200E-001	1.3065	4.030E-008
7.400E-001	1.3060	4.920E-008
7.600E-001	1.3057	7.080E-008
7.800E-001	1.3053	1.020E-007
8.000E-001	1.3049	1.340E-007
8.200E-001	1.3046	1.430E-007
8.400E-001	1.3042	1.510E-007
8.600E-001	1.3039	2.150E-007
8.800E-001	1.3035	3.350E-007
9.000E-001	1.3032	4.200E-007
9.200E-001	1.3028	4.740E-007
9.400E-001	1.3025	5.530E-007
9.600E-001	1.3022	7.550E-007
9.800E-001	1.3019	1.120E-006
1.000E+000	1.3015	1.620E-006
1.020E+000	1.3012	2.250E-006
1.040E+000	1.3009	2.330E-006
1.060E+000	1.3005	1.960E-006
1.080E+000	1.3002	1.740E-006
1.100E+000	1.2998	1.700E-006
1.120E+000	1.2995	1.820E-006
1.140E+000	1.2991	2.250E-006
1.160E+000	1.2988	3.040E-006
1.180E+000	1.2984	4.770E-006
1.200E+000	1.2980	6.710E-006
1.220E+000	1.2977	1.020E-005
1.240E+000	1.2973	1.220E-005
1.260E+000	1.2969	1.320E-005
1.280E+000	1.2965	1.330E-005
1.300E+000	1.2961	1.320E-005
1.320E+000	1.2957	1.320E-005
1.340E+000	1.2953	1.340E-005
1.360E+000	1.2949	1.420E-005
1.380E+000	1.2944	1.580E-005
1.400E+000	1.2939	1.980E-005
1.420E+000	1.2934	5.959E-005
1.440E+000	1.2929	1.516E-004
1.460E+000	1.2924	2.942E-004
1.481E+000	1.2920	4.941E-004
1.504E+000	1.2916	5.373E-004
1.527E+000	1.2912	4.908E-004
1.563E+000	1.2903	3.858E-004
1.613E+000	1.2890	2.659E-004
1.680E+000	1.2870	2.046E-004
1.730E+000	1.2853	1.650E-004
1.800E+000	1.2828	1.411E-004
1.840E+000	1.2811	1.310E-004
1.855E+000	1.2805	1.377E-004
1.870E+000	1.2797	1.632E-004
1.905E+000	1.2780	4.081E-004
1.942E+000	1.2762	1.108E-003
1.980E+000	1.2750	1.614E-003
2.020E+000	1.2736	1.566E-003
2.062E+000	1.2718	1.267E-003
2.105E+000	1.2694	7.586E-004
2.150E+000	1.2663	4.025E-004
2.190E+000	1.2633	2.707E-004
2.240E+000	1.2591	2.037E-004
2.250E+000	1.2582	2.035E-004
2.270E+000	1.2564	2.171E-004
2.310E+000	1.2525	3.138E-004
2.350E+000	1.2482	4.591E-004
2.390E+000	1.2435	5.605E-004
2.430E+000	1.2382	6.259E-004
2.500E+000	1.2270	7.530E-004
2.550E+000	1.2169	7.647E-004
2.580E+000	1.2097	7.392E-004
2.600E+000	1.2043	7.543E-004
2.675E+000	1.1776	1.367E-003
2.778E+000	1.1083	1.346E-002
2.833E+000	1.0453	4.572E-002
2.865E+000	1.0001	8.548E-002
2.899E+000	0.9563	1.690E-001
2.933E+000	0.9678	2.760E-001
2.967E+000	1.0026	3.470E-001
3.003E+000	1.0390	4.380E-001
3.040E+000	1.1259	5.540E-001
3.077E+000	1.3215	6.250E-001
3.115E+000	1.4933	5.390E-001
3.155E+000	1.5970	4.380E-001
3.195E+000	1.6477	3.000E-001
3.236E+000	1.6248	1.930E-001
3.279E+000	1.5905	1.210E-001
3.322E+000	1.5559	8.360E-002
3.367E+000	1.5241	5.312E-002
3.413E+000	1.4949	3.523E-002
3.460E+000	1.4710	2.347E-002
3.509E+000	1.4502	1.586E-002
3.559E+000	1.4328	1.130E-002
3.732E+000	1.3924	6.672E-003
3.847E+000	1.3750	8.248E-003
4.099E+000	1.3526	1.471E-002
4.348E+000	1.3406	2.411E-002
4.444E+000	1.3412	2.990E-002
4.547E+000	1.3473	3.090E-002
4.580E+000	1.3491	2.883E-002
4.904E+000	1.3379	1.347E-002
5.100E+000	1.3268	1.220E-002
5.263E+000	1.3176	1.380E-002
5.556E+000	1.3013	2.232E-002
5.747E+000	1.2917	3.539E-002
5.814E+000	1.2902	4.270E-002
5.882E+000	1.2915	5.045E-002
6.135E+000	1.3083	6.560E-002
6.289E+000	1.3167	6.265E-002
6.369E+000	1.3187	6.101E-002
6.452E+000	1.3201	5.964E-002
6.579E+000	1.3214	5.780E-002
6.757E+000	1.3229	5.680E-002
7.042E+000	1.3244	5.161E-002
7.246E+000	1.3229	4.840E-002
7.463E+000	1.3200	4.440E-002
7.692E+000	1.3158	4.041E-002
7.937E+000	1.3086	3.819E-002
8.197E+000	1.3007	3.724E-002
8.475E+000	1.2917	3.677E-002
8.929E+000	1.2735	3.664E-002
9.259E+000	1.2561	3.789E-002
9.804E+000	1.2151	4.450E-002
1.020E+001	1.1659	6.461E-002
1.042E+001	1.1323	8.800E-002
1.064E+001	1.0971	1.340E-001
1.087E+001	1.0833	2.040E-001
1.111E+001	1.1023	2.800E-001
1.163E+001	1.1983	3.790E-001
1.220E+001	1.3194	4.220E-001
1.282E+001	1.4412	4.030E-001
1.316E+001	1.4928	3.740E-001
1.351E+001	1.5300	3.350E-001
1.389E+001	1.5596	2.940E-001
1.429E+001	1.5775	2.460E-001
1.515E+001	1.5637	1.640E-001
1.563E+001	1.5481	1.420E-001
1.639E+001	1.5302	1.250E-001
1.695E+001	1.5306	1.160E-001
1.818E+001	1.5141	7.900E-002
1.861E+001	1.5043	7.455E-002
1.923E+001	1.4939	7.600E-002
2.000E+001	1.4986	6.700E-002
2.083E+001	1.4877	4.500E-002
2.260E+001	1.4486	2.750E-002
2.360E+001	1.4282	2.730E-002
2.500E+001	1.4030	3.000E-002
2.857E+001	1.3404	5.122E-002
3.333E+001	1.2641	1.348E-001
3.564E+001	1.2445	1.895E-001
3.824E+001	1.2317	2.528E-001
4.114E+001	1.2054	3.240E-001
4.358E+001	1.1549	4.521E-001
4.550E+001	1.1853	6.782E-001
4.671E+001	1.3474	8.254E-001
4.800E+001	1.5874	8.158E-001
5.003E+001	1.7505	6.191E-001
5.275E+001	1.7668	4.780E-001
5.424E+001	1.7792	4.468E-001
5.574E+001	1.8052	3.860E-001
5.700E+001	1.7940	3.196E-001
5.840E+001	1.7410	2.659E-001
6.000E+001	1.6610	2.785E-001
6.125E+001	1.6396	3.146E-001
6.378E+001	1.6471	3.748E-001
6.558E+001	1.6754	4.024E-001
6.760E+001	1.7167	4.167E-001
7.053E+001	1.7780	4.089E-001
7.500E+001	1.8419	3.543E-001
8.000E+001	1.8617	2.944E-001
8.500E+001	1.8688	2.519E-001
9.080E+001	1.8698	2.140E-001
1.000E+002	1.8654	1.706E-001
1.600E+002	1.8268	6.684E-002
3.000E+002	1.7989	2.549E-002
1.300E+003	1.7868	5.173E-003
1.900E+004	1.7861	3.574E-004
6.100E+004	1.7861	1.294E-004
1.100E+005	1.7861	9.675E-005
1.800E+005	1.7861	9.613E-005
3.400E+005	1.7861	1.312E-004
1.000E+006	1.7861	3.348E-004
